2026-06-19T15:29:24,249  INFO IOUtils:213 Resolved D:\Study\TUB\So2026\ITS\GroupAssignment\ITS-Homework2\Assignment_2\Task3-Cottbus\config_capacity_wait_C2.xml to D:\Study\TUB\So2026\ITS\GroupAssignment\ITS-Homework2\Assignment_2\Task3-Cottbus\config_capacity_wait_C2.xml
2026-06-19T15:29:24,290  INFO Config:551 setting context to [file:/D:/Study/TUB/So2026/ITS/GroupAssignment/ITS-Homework2/Assignment_2/Task3-Cottbus/]
2026-06-19T15:29:24,389  INFO Version:21 HV000001: Hibernate Validator master-SNAPSHOT
2026-06-19T15:29:24,634  INFO MatsimXmlParser:165 starting to parse xml from url file:/D:/Study/TUB/So2026/ITS/GroupAssignment/ITS-Homework2/Assignment_2/Task3-Cottbus/config_capacity_wait_C2.xml ...
2026-06-19T15:29:24,706  INFO ConfigReader:103 using config_v2-reader
2026-06-19T15:29:24,739  INFO MatsimXmlParser:281 Trying to load http://www.matsim.org/files/dtd/config_v2.dtd. In some cases (e.g. network interface up but no connection), this may take a bit.
2026-06-19T15:29:25,051  INFO Config:551 setting context to [file:/D:/Study/TUB/So2026/ITS/GroupAssignment/ITS-Homework2/Assignment_2/Task3-Cottbus/config_capacity_wait_C2.xml]
2026-06-19T15:29:25,078  INFO ScenarioLoaderImpl:135 loading network from file:/D:/Study/TUB/So2026/ITS/GroupAssignment/ITS-Homework2/Assignment_2/Task3-Cottbus/network.xml.gz
2026-06-19T15:29:25,081  INFO MatsimXmlParser:165 starting to parse xml from url file:/D:/Study/TUB/So2026/ITS/GroupAssignment/ITS-Homework2/Assignment_2/Task3-Cottbus/network.xml.gz ...
2026-06-19T15:29:25,087  INFO MatsimNetworkReader:116 using network_v1-reader.
2026-06-19T15:29:25,087  INFO MatsimXmlParser:281 Trying to load http://www.matsim.org/files/dtd/network_v1.dtd. In some cases (e.g. network interface up but no connection), this may take a bit.
2026-06-19T15:29:25,252  INFO NetworkImpl:165  node # 1
2026-06-19T15:29:25,290  INFO NetworkImpl:165  node # 4
2026-06-19T15:29:25,298  INFO NetworkImpl:165  node # 16
2026-06-19T15:29:25,321  INFO NetworkImpl:165  node # 64
2026-06-19T15:29:25,346  INFO NetworkImpl:165  node # 256
2026-06-19T15:29:25,369  INFO NetworkImpl:165  node # 1024
2026-06-19T15:29:25,416  INFO NetworkImpl:165  node # 4096
2026-06-19T15:29:25,432  INFO NetworkImpl:161  link # 1
2026-06-19T15:29:25,435  INFO NetworkImpl:161  link # 4
2026-06-19T15:29:25,438  INFO NetworkImpl:161  link # 16
2026-06-19T15:29:25,445  INFO NetworkImpl:161  link # 64
2026-06-19T15:29:25,469  INFO NetworkImpl:161  link # 256
2026-06-19T15:29:25,500  INFO NetworkImpl:161  link # 1024
2026-06-19T15:29:25,602  INFO NetworkImpl:161  link # 4096
2026-06-19T15:29:25,784  INFO ScenarioLoaderImpl:172 no facilities file set in config, therefore not loading any facilities.  This is not a problem except if you are using facilities
2026-06-19T15:29:25,817  INFO ScenarioLoaderImpl:188 no facility-attributes file set in config, not loading any facility attributes
2026-06-19T15:29:25,820  INFO ScenarioLoaderImpl:196 loading population from file:/D:/Study/TUB/So2026/ITS/GroupAssignment/ITS-Homework2/Assignment_2/Task3-Cottbus/plans.xml
2026-06-19T15:29:25,828  INFO MatsimXmlParser:165 starting to parse xml from url file:/D:/Study/TUB/So2026/ITS/GroupAssignment/ITS-Homework2/Assignment_2/Task3-Cottbus/plans.xml ...
2026-06-19T15:29:25,993  INFO PopulationReader:124 using population_v6-reader.
2026-06-19T15:29:26,024  INFO MatsimXmlParser:281 Trying to load http://www.matsim.org/files/dtd/population_v6.dtd. In some cases (e.g. network interface up but no connection), this may take a bit.
2026-06-19T15:29:26,189  INFO PopulationImpl:107  person # 1
2026-06-19T15:29:26,226  INFO PopulationImpl:107  person # 4
2026-06-19T15:29:26,242  INFO PopulationImpl:107  person # 16
2026-06-19T15:29:26,257  INFO PopulationImpl:107  person # 64
2026-06-19T15:29:26,297  INFO PopulationImpl:107  person # 256
2026-06-19T15:29:26,399  INFO PopulationImpl:107  person # 1024
2026-06-19T15:29:26,590  INFO PopulationImpl:107  person # 4096
2026-06-19T15:29:26,632  INFO PopulationUtils:1078  person # 4523
2026-06-19T15:29:26,634  INFO ScenarioLoaderImpl:244 no person-attributes file set in config, not loading any person attributes
2026-06-19T15:29:26,636  INFO ScenarioLoaderImpl:258 no households file set in config, not loading households
2026-06-19T15:29:26,637  INFO ScenarioLoaderImpl:276 no household-attributes file set in config, not loading any household attributes
2026-06-19T15:29:26,637  INFO ScenarioLoaderImpl:290 no transit schedule file set in config, not loading any transit schedule
2026-06-19T15:29:26,638  INFO ScenarioLoaderImpl:331 no transit vehicles file set in config, not loading any transit vehicles
2026-06-19T15:29:26,670  INFO VspConfigConsistencyCheckerImpl:61 NOT running vsp config consistency check because vsp defaults checking level is set to IGNORE
2026-06-19T15:29:28,274  INFO DvrpGlobalRoutingNetworkProvider:66 DVRP global routing network unfiltered: #nodes=4477 #links:10729
2026-06-19T15:29:28,311  INFO NetworkImpl:165  node # 1
2026-06-19T15:29:28,312  INFO NetworkImpl:165  node # 4
2026-06-19T15:29:28,312  INFO NetworkImpl:165  node # 16
2026-06-19T15:29:28,313  INFO NetworkImpl:165  node # 64
2026-06-19T15:29:28,316  INFO NetworkImpl:165  node # 256
2026-06-19T15:29:28,318  INFO NetworkImpl:165  node # 1024
2026-06-19T15:29:28,321  INFO NetworkImpl:165  node # 4096
2026-06-19T15:29:28,323  INFO NetworkImpl:161  link # 1
2026-06-19T15:29:28,324  INFO NetworkImpl:161  link # 4
2026-06-19T15:29:28,325  INFO NetworkImpl:161  link # 16
2026-06-19T15:29:28,327  INFO NetworkImpl:161  link # 64
2026-06-19T15:29:28,332  INFO NetworkImpl:161  link # 256
2026-06-19T15:29:28,337  INFO NetworkImpl:161  link # 1024
2026-06-19T15:29:28,352  INFO NetworkImpl:161  link # 4096
2026-06-19T15:29:28,384  INFO DvrpGlobalRoutingNetworkProvider:66 DVRP global routing network filtered: #nodes=4415 #links:10599
2026-06-19T15:29:28,392  INFO SimStepParallelEventsManagerImpl:80 number of threads=1
2026-06-19T15:29:28,400  INFO EventsManagerImpl:138 adding Event-Handler: org.matsim.core.trafficmonitoring.TravelTimeCalculator
2026-06-19T15:29:28,402  INFO EventsManagerImpl:144   org.matsim.api.core.v01.events.handler.LinkEnterEventHandler
2026-06-19T15:29:28,403  INFO EventsManagerImpl:205     > org.matsim.api.core.v01.events.LinkEnterEvent
2026-06-19T15:29:28,404  INFO EventsManagerImpl:144   org.matsim.api.core.v01.events.handler.LinkLeaveEventHandler
2026-06-19T15:29:28,406  INFO EventsManagerImpl:205     > org.matsim.api.core.v01.events.LinkLeaveEvent
2026-06-19T15:29:28,406  INFO EventsManagerImpl:144   org.matsim.api.core.v01.events.handler.VehicleEntersTrafficEventHandler
2026-06-19T15:29:28,407  INFO EventsManagerImpl:205     > org.matsim.api.core.v01.events.VehicleEntersTrafficEvent
2026-06-19T15:29:28,407  INFO EventsManagerImpl:144   org.matsim.api.core.v01.events.handler.VehicleLeavesTrafficEventHandler
2026-06-19T15:29:28,408  INFO EventsManagerImpl:205     > org.matsim.api.core.v01.events.VehicleLeavesTrafficEvent
2026-06-19T15:29:28,409  INFO EventsManagerImpl:144   org.matsim.core.api.experimental.events.handler.VehicleArrivesAtFacilityEventHandler
2026-06-19T15:29:28,411  INFO EventsManagerImpl:205     > org.matsim.core.api.experimental.events.VehicleArrivesAtFacilityEvent
2026-06-19T15:29:28,411  INFO EventsManagerImpl:144   org.matsim.api.core.v01.events.handler.VehicleAbortsEventHandler
2026-06-19T15:29:28,412  INFO EventsManagerImpl:205     > org.matsim.api.core.v01.events.VehicleAbortsEvent
2026-06-19T15:29:28,413  INFO EventsManagerImpl:154 
2026-06-19T15:29:28,413  INFO EventsManagerImpl:138 adding Event-Handler: org.matsim.core.trafficmonitoring.TravelTimeCalculator
2026-06-19T15:29:28,414  INFO EventsManagerImpl:144   org.matsim.api.core.v01.events.handler.LinkEnterEventHandler
2026-06-19T15:29:28,414  INFO EventsManagerImpl:205     > org.matsim.api.core.v01.events.LinkEnterEvent
2026-06-19T15:29:28,415  INFO EventsManagerImpl:144   org.matsim.api.core.v01.events.handler.LinkLeaveEventHandler
2026-06-19T15:29:28,415  INFO EventsManagerImpl:205     > org.matsim.api.core.v01.events.LinkLeaveEvent
2026-06-19T15:29:28,416  INFO EventsManagerImpl:144   org.matsim.api.core.v01.events.handler.VehicleEntersTrafficEventHandler
2026-06-19T15:29:28,417  INFO EventsManagerImpl:205     > org.matsim.api.core.v01.events.VehicleEntersTrafficEvent
2026-06-19T15:29:28,418  INFO EventsManagerImpl:144   org.matsim.api.core.v01.events.handler.VehicleLeavesTrafficEventHandler
2026-06-19T15:29:28,419  INFO EventsManagerImpl:205     > org.matsim.api.core.v01.events.VehicleLeavesTrafficEvent
2026-06-19T15:29:28,420  INFO EventsManagerImpl:144   org.matsim.core.api.experimental.events.handler.VehicleArrivesAtFacilityEventHandler
2026-06-19T15:29:28,420  INFO EventsManagerImpl:205     > org.matsim.core.api.experimental.events.VehicleArrivesAtFacilityEvent
2026-06-19T15:29:28,421  INFO EventsManagerImpl:144   org.matsim.api.core.v01.events.handler.VehicleAbortsEventHandler
2026-06-19T15:29:28,421  INFO EventsManagerImpl:205     > org.matsim.api.core.v01.events.VehicleAbortsEvent
2026-06-19T15:29:28,422  INFO EventsManagerImpl:154 
2026-06-19T15:29:28,455  INFO MatsimXmlParser:165 starting to parse xml from url file:/D:/Study/TUB/So2026/ITS/GroupAssignment/ITS-Homework2/Assignment_2/Task3-Cottbus/drt-vehicles/fleet-size-250-capacity-4-Cexp.xml ...
2026-06-19T15:29:28,463  INFO MatsimXmlParser:281 Trying to load http://matsim.org/files/dtd/dvrp_vehicles_v1.dtd. In some cases (e.g. network interface up but no connection), this may take a bit.
2026-06-19T15:29:28,597  INFO DrtGridUtils:50 start creating grid from network
2026-06-19T15:29:28,647  INFO DrtGridUtils:72 finished creating grid from network
2026-06-19T15:29:28,861  INFO SpeedyALTData:51 find dead ends...
2026-06-19T15:29:28,901  INFO SpeedyALTData:132 calculate landmarks...
2026-06-19T15:29:28,989  INFO SpeedyALTData:173 calculate min travelcost...
2026-06-19T15:29:29,046  INFO StrategyManager:77 global innovation switch off after iteration: 0
2026-06-19T15:29:29,050  INFO GenericStrategyManagerImpl:330 added change request:  iteration=1 newWeight=0.0 strategy=RandomPlanSelector_TimeAllocationMutatorModule
2026-06-19T15:29:29,051  INFO GenericStrategyManagerImpl:362 setting PlanSelectorForRemoval to class org.matsim.core.replanning.selectors.WorstPlanForRemovalSelector
2026-06-19T15:29:29,054  INFO EventsManagerImpl:138 adding Event-Handler: org.matsim.core.scoring.ScoringFunctionsForPopulation
2026-06-19T15:29:29,054  INFO EventsManagerImpl:144   org.matsim.core.events.handler.BasicEventHandler
2026-06-19T15:29:29,055  INFO EventsManagerImpl:205     > org.matsim.api.core.v01.events.Event
2026-06-19T15:29:29,055  INFO EventsManagerImpl:154 
2026-06-19T15:29:29,056  INFO EventsManagerImpl:138 adding Event-Handler: org.matsim.core.scoring.ScoringFunctionsForPopulation
2026-06-19T15:29:29,056  INFO EventsManagerImpl:144   org.matsim.core.events.handler.BasicEventHandler
2026-06-19T15:29:29,057  INFO EventsManagerImpl:205     > org.matsim.api.core.v01.events.Event
2026-06-19T15:29:29,057  INFO EventsManagerImpl:154 
2026-06-19T15:29:29,064  INFO CalcLinkStats:151  resetting `count' to zero.  This info is here since we want to check when this is happening during normal simulation runs.  kai, jan'11
2026-06-19T15:29:29,081  INFO EventsManagerImpl:138 adding Event-Handler: org.matsim.analysis.VolumesAnalyzer
2026-06-19T15:29:29,082  INFO EventsManagerImpl:144   org.matsim.api.core.v01.events.handler.LinkLeaveEventHandler
2026-06-19T15:29:29,083  INFO EventsManagerImpl:205     > org.matsim.api.core.v01.events.LinkLeaveEvent
2026-06-19T15:29:29,084  INFO EventsManagerImpl:144   org.matsim.api.core.v01.events.handler.VehicleEntersTrafficEventHandler
2026-06-19T15:29:29,084  INFO EventsManagerImpl:205     > org.matsim.api.core.v01.events.VehicleEntersTrafficEvent
2026-06-19T15:29:29,085  INFO EventsManagerImpl:154 
2026-06-19T15:29:29,085  INFO EventsManagerImpl:138 adding Event-Handler: org.matsim.analysis.VolumesAnalyzer
2026-06-19T15:29:29,085  INFO EventsManagerImpl:144   org.matsim.api.core.v01.events.handler.LinkLeaveEventHandler
2026-06-19T15:29:29,086  INFO EventsManagerImpl:205     > org.matsim.api.core.v01.events.LinkLeaveEvent
2026-06-19T15:29:29,087  INFO EventsManagerImpl:144   org.matsim.api.core.v01.events.handler.VehicleEntersTrafficEventHandler
2026-06-19T15:29:29,087  INFO EventsManagerImpl:205     > org.matsim.api.core.v01.events.VehicleEntersTrafficEvent
2026-06-19T15:29:29,088  INFO EventsManagerImpl:154 
2026-06-19T15:29:29,089  INFO EventsManagerImpl:138 adding Event-Handler: org.matsim.analysis.LegHistogram
2026-06-19T15:29:29,090  INFO EventsManagerImpl:144   org.matsim.api.core.v01.events.handler.PersonDepartureEventHandler
2026-06-19T15:29:29,095  INFO EventsManagerImpl:205     > org.matsim.api.core.v01.events.PersonDepartureEvent
2026-06-19T15:29:29,096  INFO EventsManagerImpl:144   org.matsim.api.core.v01.events.handler.PersonArrivalEventHandler
2026-06-19T15:29:29,096  INFO EventsManagerImpl:205     > org.matsim.api.core.v01.events.PersonArrivalEvent
2026-06-19T15:29:29,097  INFO EventsManagerImpl:144   org.matsim.api.core.v01.events.handler.PersonStuckEventHandler
2026-06-19T15:29:29,097  INFO EventsManagerImpl:205     > org.matsim.api.core.v01.events.PersonStuckEvent
2026-06-19T15:29:29,098  INFO EventsManagerImpl:154 
2026-06-19T15:29:29,099  INFO EventsManagerImpl:138 adding Event-Handler: org.matsim.analysis.LegHistogram
2026-06-19T15:29:29,099  INFO EventsManagerImpl:144   org.matsim.api.core.v01.events.handler.PersonDepartureEventHandler
2026-06-19T15:29:29,100  INFO EventsManagerImpl:205     > org.matsim.api.core.v01.events.PersonDepartureEvent
2026-06-19T15:29:29,100  INFO EventsManagerImpl:144   org.matsim.api.core.v01.events.handler.PersonArrivalEventHandler
2026-06-19T15:29:29,101  INFO EventsManagerImpl:205     > org.matsim.api.core.v01.events.PersonArrivalEvent
2026-06-19T15:29:29,101  INFO EventsManagerImpl:144   org.matsim.api.core.v01.events.handler.PersonStuckEventHandler
2026-06-19T15:29:29,102  INFO EventsManagerImpl:205     > org.matsim.api.core.v01.events.PersonStuckEvent
2026-06-19T15:29:29,102  INFO EventsManagerImpl:154 
2026-06-19T15:29:29,103  INFO EventsManagerImpl:138 adding Event-Handler: org.matsim.analysis.CalcLegTimes
2026-06-19T15:29:29,103  INFO EventsManagerImpl:144   org.matsim.api.core.v01.events.handler.PersonDepartureEventHandler
2026-06-19T15:29:29,103  INFO EventsManagerImpl:205     > org.matsim.api.core.v01.events.PersonDepartureEvent
2026-06-19T15:29:29,105  INFO EventsManagerImpl:144   org.matsim.api.core.v01.events.handler.PersonArrivalEventHandler
2026-06-19T15:29:29,105  INFO EventsManagerImpl:205     > org.matsim.api.core.v01.events.PersonArrivalEvent
2026-06-19T15:29:29,105  INFO EventsManagerImpl:144   org.matsim.api.core.v01.events.handler.ActivityEndEventHandler
2026-06-19T15:29:29,105  INFO EventsManagerImpl:205     > org.matsim.api.core.v01.events.ActivityEndEvent
2026-06-19T15:29:29,107  INFO EventsManagerImpl:144   org.matsim.api.core.v01.events.handler.ActivityStartEventHandler
2026-06-19T15:29:29,107  INFO EventsManagerImpl:205     > org.matsim.api.core.v01.events.ActivityStartEvent
2026-06-19T15:29:29,107  INFO EventsManagerImpl:154 
2026-06-19T15:29:29,108  INFO EventsManagerImpl:138 adding Event-Handler: org.matsim.analysis.CalcLegTimes
2026-06-19T15:29:29,108  INFO EventsManagerImpl:144   org.matsim.api.core.v01.events.handler.PersonDepartureEventHandler
2026-06-19T15:29:29,109  INFO EventsManagerImpl:205     > org.matsim.api.core.v01.events.PersonDepartureEvent
2026-06-19T15:29:29,110  INFO EventsManagerImpl:144   org.matsim.api.core.v01.events.handler.PersonArrivalEventHandler
2026-06-19T15:29:29,110  INFO EventsManagerImpl:205     > org.matsim.api.core.v01.events.PersonArrivalEvent
2026-06-19T15:29:29,110  INFO EventsManagerImpl:144   org.matsim.api.core.v01.events.handler.ActivityEndEventHandler
2026-06-19T15:29:29,111  INFO EventsManagerImpl:205     > org.matsim.api.core.v01.events.ActivityEndEvent
2026-06-19T15:29:29,111  INFO EventsManagerImpl:144   org.matsim.api.core.v01.events.handler.ActivityStartEventHandler
2026-06-19T15:29:29,112  INFO EventsManagerImpl:205     > org.matsim.api.core.v01.events.ActivityStartEvent
2026-06-19T15:29:29,112  INFO EventsManagerImpl:154 
2026-06-19T15:29:29,121  INFO AbstractController:55 Used Controler-Class: org.matsim.core.controler.NewControler
2026-06-19T15:29:29,122  INFO Config:511 ConfigConsistencyChecker with runtime type=class org.matsim.core.config.consistency.ConfigConsistencyCheckerImpl was already added; not adding it a second time
2026-06-19T15:29:29,123  INFO EventsManagerImpl:138 adding Event-Handler: org.matsim.contrib.drt.analysis.zonal.ZonalIdleVehicleXYVisualiser
2026-06-19T15:29:29,125  INFO EventsManagerImpl:144   org.matsim.contrib.dvrp.vrpagent.TaskStartedEventHandler
2026-06-19T15:29:29,126  INFO EventsManagerImpl:205     > org.matsim.contrib.dvrp.vrpagent.TaskStartedEvent
2026-06-19T15:29:29,126  INFO EventsManagerImpl:144   org.matsim.contrib.dvrp.vrpagent.TaskEndedEventHandler
2026-06-19T15:29:29,127  INFO EventsManagerImpl:205     > org.matsim.contrib.dvrp.vrpagent.TaskEndedEvent
2026-06-19T15:29:29,128  INFO EventsManagerImpl:154 
2026-06-19T15:29:29,128  INFO EventsManagerImpl:138 adding Event-Handler: org.matsim.contrib.drt.analysis.zonal.ZonalIdleVehicleXYVisualiser
2026-06-19T15:29:29,128  INFO EventsManagerImpl:144   org.matsim.contrib.dvrp.vrpagent.TaskStartedEventHandler
2026-06-19T15:29:29,129  INFO EventsManagerImpl:205     > org.matsim.contrib.dvrp.vrpagent.TaskStartedEvent
2026-06-19T15:29:29,130  INFO EventsManagerImpl:144   org.matsim.contrib.dvrp.vrpagent.TaskEndedEventHandler
2026-06-19T15:29:29,130  INFO EventsManagerImpl:205     > org.matsim.contrib.dvrp.vrpagent.TaskEndedEvent
2026-06-19T15:29:29,131  INFO EventsManagerImpl:154 
2026-06-19T15:29:29,131  INFO EventsManagerImpl:138 adding Event-Handler: org.matsim.contrib.drt.optimizer.rebalancing.demandestimator.PreviousIterationDRTDemandEstimator
2026-06-19T15:29:29,132  INFO EventsManagerImpl:144   org.matsim.api.core.v01.events.handler.PersonDepartureEventHandler
2026-06-19T15:29:29,132  INFO EventsManagerImpl:205     > org.matsim.api.core.v01.events.PersonDepartureEvent
2026-06-19T15:29:29,133  INFO EventsManagerImpl:154 
2026-06-19T15:29:29,134  INFO EventsManagerImpl:138 adding Event-Handler: org.matsim.contrib.drt.optimizer.rebalancing.demandestimator.PreviousIterationDRTDemandEstimator
2026-06-19T15:29:29,135  INFO EventsManagerImpl:144   org.matsim.api.core.v01.events.handler.PersonDepartureEventHandler
2026-06-19T15:29:29,135  INFO EventsManagerImpl:205     > org.matsim.api.core.v01.events.PersonDepartureEvent
2026-06-19T15:29:29,137  INFO EventsManagerImpl:154 
2026-06-19T15:29:29,137  INFO EventsManagerImpl:138 adding Event-Handler: org.matsim.contrib.drt.fare.DrtFareHandler
2026-06-19T15:29:29,137  INFO EventsManagerImpl:144   org.matsim.contrib.drt.passenger.events.DrtRequestSubmittedEventHandler
2026-06-19T15:29:29,138  INFO EventsManagerImpl:205     > org.matsim.contrib.drt.passenger.events.DrtRequestSubmittedEvent
2026-06-19T15:29:29,139  INFO EventsManagerImpl:144   org.matsim.contrib.dvrp.passenger.PassengerDroppedOffEventHandler
2026-06-19T15:29:29,140  INFO EventsManagerImpl:205     > org.matsim.contrib.dvrp.passenger.PassengerDroppedOffEvent
2026-06-19T15:29:29,140  INFO EventsManagerImpl:154 
2026-06-19T15:29:29,141  INFO EventsManagerImpl:138 adding Event-Handler: org.matsim.contrib.drt.fare.DrtFareHandler
2026-06-19T15:29:29,142  INFO EventsManagerImpl:144   org.matsim.contrib.drt.passenger.events.DrtRequestSubmittedEventHandler
2026-06-19T15:29:29,143  INFO EventsManagerImpl:205     > org.matsim.contrib.drt.passenger.events.DrtRequestSubmittedEvent
2026-06-19T15:29:29,144  INFO EventsManagerImpl:144   org.matsim.contrib.dvrp.passenger.PassengerDroppedOffEventHandler
2026-06-19T15:29:29,145  INFO EventsManagerImpl:205     > org.matsim.contrib.dvrp.passenger.PassengerDroppedOffEvent
2026-06-19T15:29:29,146  INFO EventsManagerImpl:154 
2026-06-19T15:29:29,147  INFO EventsManagerImpl:138 adding Event-Handler: org.matsim.contrib.dvrp.analysis.ExecutedScheduleCollector
2026-06-19T15:29:29,150  INFO EventsManagerImpl:144   org.matsim.contrib.dvrp.vrpagent.TaskStartedEventHandler
2026-06-19T15:29:29,152  INFO EventsManagerImpl:205     > org.matsim.contrib.dvrp.vrpagent.TaskStartedEvent
2026-06-19T15:29:29,152  INFO EventsManagerImpl:144   org.matsim.contrib.dvrp.vrpagent.TaskEndedEventHandler
2026-06-19T15:29:29,153  INFO EventsManagerImpl:205     > org.matsim.contrib.dvrp.vrpagent.TaskEndedEvent
2026-06-19T15:29:29,154  INFO EventsManagerImpl:154 
2026-06-19T15:29:29,154  INFO EventsManagerImpl:138 adding Event-Handler: org.matsim.contrib.dvrp.analysis.ExecutedScheduleCollector
2026-06-19T15:29:29,155  INFO EventsManagerImpl:144   org.matsim.contrib.dvrp.vrpagent.TaskStartedEventHandler
2026-06-19T15:29:29,156  INFO EventsManagerImpl:205     > org.matsim.contrib.dvrp.vrpagent.TaskStartedEvent
2026-06-19T15:29:29,156  INFO EventsManagerImpl:144   org.matsim.contrib.dvrp.vrpagent.TaskEndedEventHandler
2026-06-19T15:29:29,157  INFO EventsManagerImpl:205     > org.matsim.contrib.dvrp.vrpagent.TaskEndedEvent
2026-06-19T15:29:29,157  INFO EventsManagerImpl:154 
2026-06-19T15:29:29,157  INFO EventsManagerImpl:138 adding Event-Handler: org.matsim.contrib.drt.analysis.DrtVehicleDistanceStats
2026-06-19T15:29:29,158  INFO EventsManagerImpl:144   org.matsim.contrib.dvrp.passenger.PassengerPickedUpEventHandler
2026-06-19T15:29:29,160  INFO EventsManagerImpl:205     > org.matsim.contrib.dvrp.passenger.PassengerPickedUpEvent
2026-06-19T15:29:29,160  INFO EventsManagerImpl:144   org.matsim.api.core.v01.events.handler.LinkEnterEventHandler
2026-06-19T15:29:29,161  INFO EventsManagerImpl:205     > org.matsim.api.core.v01.events.LinkEnterEvent
2026-06-19T15:29:29,161  INFO EventsManagerImpl:144   org.matsim.contrib.dvrp.passenger.PassengerDroppedOffEventHandler
2026-06-19T15:29:29,162  INFO EventsManagerImpl:205     > org.matsim.contrib.dvrp.passenger.PassengerDroppedOffEvent
2026-06-19T15:29:29,163  INFO EventsManagerImpl:144   org.matsim.core.api.experimental.events.handler.TeleportationArrivalEventHandler
2026-06-19T15:29:29,163  INFO EventsManagerImpl:205     > org.matsim.core.api.experimental.events.TeleportationArrivalEvent
2026-06-19T15:29:29,164  INFO EventsManagerImpl:154 
2026-06-19T15:29:29,165  INFO EventsManagerImpl:138 adding Event-Handler: org.matsim.contrib.drt.analysis.DrtVehicleDistanceStats
2026-06-19T15:29:29,165  INFO EventsManagerImpl:144   org.matsim.contrib.dvrp.passenger.PassengerPickedUpEventHandler
2026-06-19T15:29:29,166  INFO EventsManagerImpl:205     > org.matsim.contrib.dvrp.passenger.PassengerPickedUpEvent
2026-06-19T15:29:29,166  INFO EventsManagerImpl:144   org.matsim.api.core.v01.events.handler.LinkEnterEventHandler
2026-06-19T15:29:29,168  INFO EventsManagerImpl:205     > org.matsim.api.core.v01.events.LinkEnterEvent
2026-06-19T15:29:29,168  INFO EventsManagerImpl:144   org.matsim.contrib.dvrp.passenger.PassengerDroppedOffEventHandler
2026-06-19T15:29:29,168  INFO EventsManagerImpl:205     > org.matsim.contrib.dvrp.passenger.PassengerDroppedOffEvent
2026-06-19T15:29:29,169  INFO EventsManagerImpl:144   org.matsim.core.api.experimental.events.handler.TeleportationArrivalEventHandler
2026-06-19T15:29:29,169  INFO EventsManagerImpl:205     > org.matsim.core.api.experimental.events.TeleportationArrivalEvent
2026-06-19T15:29:29,170  INFO EventsManagerImpl:154 
2026-06-19T15:29:29,170  INFO EventsManagerImpl:138 adding Event-Handler: org.matsim.contrib.drt.analysis.DrtEventSequenceCollector
2026-06-19T15:29:29,171  INFO EventsManagerImpl:144   org.matsim.contrib.dvrp.passenger.PassengerRequestRejectedEventHandler
2026-06-19T15:29:29,172  INFO EventsManagerImpl:205     > org.matsim.contrib.dvrp.passenger.PassengerRequestRejectedEvent
2026-06-19T15:29:29,172  INFO EventsManagerImpl:144   org.matsim.contrib.dvrp.passenger.PassengerRequestScheduledEventHandler
2026-06-19T15:29:29,175  INFO EventsManagerImpl:205     > org.matsim.contrib.dvrp.passenger.PassengerRequestScheduledEvent
2026-06-19T15:29:29,176  INFO EventsManagerImpl:144   org.matsim.contrib.drt.passenger.events.DrtRequestSubmittedEventHandler
2026-06-19T15:29:29,176  INFO EventsManagerImpl:205     > org.matsim.contrib.drt.passenger.events.DrtRequestSubmittedEvent
2026-06-19T15:29:29,177  INFO EventsManagerImpl:144   org.matsim.contrib.dvrp.passenger.PassengerPickedUpEventHandler
2026-06-19T15:29:29,177  INFO EventsManagerImpl:205     > org.matsim.contrib.dvrp.passenger.PassengerPickedUpEvent
2026-06-19T15:29:29,178  INFO EventsManagerImpl:144   org.matsim.contrib.dvrp.passenger.PassengerDroppedOffEventHandler
2026-06-19T15:29:29,178  INFO EventsManagerImpl:205     > org.matsim.contrib.dvrp.passenger.PassengerDroppedOffEvent
2026-06-19T15:29:29,179  INFO EventsManagerImpl:144   org.matsim.api.core.v01.events.handler.PersonMoneyEventHandler
2026-06-19T15:29:29,179  INFO EventsManagerImpl:205     > org.matsim.api.core.v01.events.PersonMoneyEvent
2026-06-19T15:29:29,180  INFO EventsManagerImpl:144   org.matsim.api.core.v01.events.handler.PersonDepartureEventHandler
2026-06-19T15:29:29,180  INFO EventsManagerImpl:205     > org.matsim.api.core.v01.events.PersonDepartureEvent
2026-06-19T15:29:29,180  INFO EventsManagerImpl:154 
2026-06-19T15:29:29,180  INFO EventsManagerImpl:138 adding Event-Handler: org.matsim.contrib.drt.analysis.DrtEventSequenceCollector
2026-06-19T15:29:29,181  INFO EventsManagerImpl:144   org.matsim.contrib.dvrp.passenger.PassengerRequestRejectedEventHandler
2026-06-19T15:29:29,181  INFO EventsManagerImpl:205     > org.matsim.contrib.dvrp.passenger.PassengerRequestRejectedEvent
2026-06-19T15:29:29,182  INFO EventsManagerImpl:144   org.matsim.contrib.dvrp.passenger.PassengerRequestScheduledEventHandler
2026-06-19T15:29:29,182  INFO EventsManagerImpl:205     > org.matsim.contrib.dvrp.passenger.PassengerRequestScheduledEvent
2026-06-19T15:29:29,183  INFO EventsManagerImpl:144   org.matsim.contrib.drt.passenger.events.DrtRequestSubmittedEventHandler
2026-06-19T15:29:29,183  INFO EventsManagerImpl:205     > org.matsim.contrib.drt.passenger.events.DrtRequestSubmittedEvent
2026-06-19T15:29:29,184  INFO EventsManagerImpl:144   org.matsim.contrib.dvrp.passenger.PassengerPickedUpEventHandler
2026-06-19T15:29:29,184  INFO EventsManagerImpl:205     > org.matsim.contrib.dvrp.passenger.PassengerPickedUpEvent
2026-06-19T15:29:29,185  INFO EventsManagerImpl:144   org.matsim.contrib.dvrp.passenger.PassengerDroppedOffEventHandler
2026-06-19T15:29:29,186  INFO EventsManagerImpl:205     > org.matsim.contrib.dvrp.passenger.PassengerDroppedOffEvent
2026-06-19T15:29:29,187  INFO EventsManagerImpl:144   org.matsim.api.core.v01.events.handler.PersonMoneyEventHandler
2026-06-19T15:29:29,190  INFO EventsManagerImpl:205     > org.matsim.api.core.v01.events.PersonMoneyEvent
2026-06-19T15:29:29,191  INFO EventsManagerImpl:144   org.matsim.api.core.v01.events.handler.PersonDepartureEventHandler
2026-06-19T15:29:29,191  INFO EventsManagerImpl:205     > org.matsim.api.core.v01.events.PersonDepartureEvent
2026-06-19T15:29:29,192  INFO EventsManagerImpl:154 
2026-06-19T15:29:29,192  INFO EventsManagerImpl:138 adding Event-Handler: org.matsim.contrib.dvrp.analysis.VehicleOccupancyProfileCalculator
2026-06-19T15:29:29,193  INFO EventsManagerImpl:144   org.matsim.api.core.v01.events.handler.PersonEntersVehicleEventHandler
2026-06-19T15:29:29,193  INFO EventsManagerImpl:205     > org.matsim.api.core.v01.events.PersonEntersVehicleEvent
2026-06-19T15:29:29,193  INFO EventsManagerImpl:144   org.matsim.api.core.v01.events.handler.PersonLeavesVehicleEventHandler
2026-06-19T15:29:29,194  INFO EventsManagerImpl:205     > org.matsim.api.core.v01.events.PersonLeavesVehicleEvent
2026-06-19T15:29:29,194  INFO EventsManagerImpl:144   org.matsim.contrib.dvrp.vrpagent.TaskStartedEventHandler
2026-06-19T15:29:29,194  INFO EventsManagerImpl:205     > org.matsim.contrib.dvrp.vrpagent.TaskStartedEvent
2026-06-19T15:29:29,195  INFO EventsManagerImpl:144   org.matsim.contrib.dvrp.vrpagent.TaskEndedEventHandler
2026-06-19T15:29:29,195  INFO EventsManagerImpl:205     > org.matsim.contrib.dvrp.vrpagent.TaskEndedEvent
2026-06-19T15:29:29,195  INFO EventsManagerImpl:154 
2026-06-19T15:29:29,196  INFO EventsManagerImpl:138 adding Event-Handler: org.matsim.contrib.dvrp.analysis.VehicleOccupancyProfileCalculator
2026-06-19T15:29:29,196  INFO EventsManagerImpl:144   org.matsim.api.core.v01.events.handler.PersonEntersVehicleEventHandler
2026-06-19T15:29:29,196  INFO EventsManagerImpl:205     > org.matsim.api.core.v01.events.PersonEntersVehicleEvent
2026-06-19T15:29:29,197  INFO EventsManagerImpl:144   org.matsim.api.core.v01.events.handler.PersonLeavesVehicleEventHandler
2026-06-19T15:29:29,197  INFO EventsManagerImpl:205     > org.matsim.api.core.v01.events.PersonLeavesVehicleEvent
2026-06-19T15:29:29,197  INFO EventsManagerImpl:144   org.matsim.contrib.dvrp.vrpagent.TaskStartedEventHandler
2026-06-19T15:29:29,198  INFO EventsManagerImpl:205     > org.matsim.contrib.dvrp.vrpagent.TaskStartedEvent
2026-06-19T15:29:29,198  INFO EventsManagerImpl:144   org.matsim.contrib.dvrp.vrpagent.TaskEndedEventHandler
2026-06-19T15:29:29,198  INFO EventsManagerImpl:205     > org.matsim.contrib.dvrp.vrpagent.TaskEndedEvent
2026-06-19T15:29:29,199  INFO EventsManagerImpl:154 
2026-06-19T15:29:29,199  INFO EventsManagerImpl:138 adding Event-Handler: org.matsim.contrib.dvrp.analysis.VehicleTaskProfileCalculator
2026-06-19T15:29:29,199  INFO EventsManagerImpl:144   org.matsim.contrib.dvrp.vrpagent.TaskStartedEventHandler
2026-06-19T15:29:29,200  INFO EventsManagerImpl:205     > org.matsim.contrib.dvrp.vrpagent.TaskStartedEvent
2026-06-19T15:29:29,200  INFO EventsManagerImpl:144   org.matsim.contrib.dvrp.vrpagent.TaskEndedEventHandler
2026-06-19T15:29:29,201  INFO EventsManagerImpl:205     > org.matsim.contrib.dvrp.vrpagent.TaskEndedEvent
2026-06-19T15:29:29,201  INFO EventsManagerImpl:154 
2026-06-19T15:29:29,201  INFO EventsManagerImpl:138 adding Event-Handler: org.matsim.contrib.dvrp.analysis.VehicleTaskProfileCalculator
2026-06-19T15:29:29,202  INFO EventsManagerImpl:144   org.matsim.contrib.dvrp.vrpagent.TaskStartedEventHandler
2026-06-19T15:29:29,204  INFO EventsManagerImpl:205     > org.matsim.contrib.dvrp.vrpagent.TaskStartedEvent
2026-06-19T15:29:29,204  INFO EventsManagerImpl:144   org.matsim.contrib.dvrp.vrpagent.TaskEndedEventHandler
2026-06-19T15:29:29,204  INFO EventsManagerImpl:205     > org.matsim.contrib.dvrp.vrpagent.TaskEndedEvent
2026-06-19T15:29:29,205  INFO EventsManagerImpl:154 
2026-06-19T15:29:29,206  INFO Injector:81 === printInjector start ===
2026-06-19T15:29:29,207  INFO Injector:85 org.matsim.core.mobsim.qsim.components.QSimComponentsConfig 
2026-06-19T15:29:29,209  INFO Injector:86   --> provider: ConstantFactory{value=org.matsim.core.mobsim.qsim.components.QSimComponentsConfig@5f36c8e3}[Scopes.SINGLETON]
2026-06-19T15:29:29,209  INFO Injector:87   --> source: org.matsim.core.controler.Controler$10.install(Controler.java:518)
2026-06-19T15:29:29,210  INFO Injector:89   --> scope: eager singleton
2026-06-19T15:29:29,210  INFO Injector:94   ==full==> InstanceBinding{key=Key[type=org.matsim.core.mobsim.qsim.components.QSimComponentsConfig, annotation=[none]], source=org.matsim.core.controler.Controler$10.install(Controler.java:518), instance=org.matsim.core.mobsim.qsim.components.QSimComponentsConfig@5f36c8e3}
2026-06-19T15:29:29,211  INFO Injector:96 
2026-06-19T15:29:29,211  INFO Injector:85 org.matsim.vis.otfvis.OnTheFlyServer$NonPlanAgentQueryHelper 
2026-06-19T15:29:29,212  INFO Injector:86   --> provider: FactoryProxy{key=Key[type=org.matsim.vis.otfvis.OnTheFlyServer$NonPlanAgentQueryHelper, annotation=[none]], provider=com.google.inject.internal.ConstructorBindingImpl$Factory@4da39ca9}
2026-06-19T15:29:29,212  INFO Injector:87   --> source: org.matsim.contrib.dvrp.run.DvrpModule.install(DvrpModule.java:68)
2026-06-19T15:29:29,213  INFO Injector:89   --> scope: Scopes.NO_SCOPE
2026-06-19T15:29:29,213  INFO Injector:92   --> target: Key[type=org.matsim.contrib.dvrp.vrpagent.VrpAgentQueryHelper, annotation=[none]]
2026-06-19T15:29:29,213  INFO Injector:94   ==full==> LinkedKeyBinding{key=Key[type=org.matsim.vis.otfvis.OnTheFlyServer$NonPlanAgentQueryHelper, annotation=[none]], source=org.matsim.contrib.dvrp.run.DvrpModule.install(DvrpModule.java:68), scope=Scopes.NO_SCOPE, target=Key[type=org.matsim.contrib.dvrp.vrpagent.VrpAgentQueryHelper, annotation=[none]]}
2026-06-19T15:29:29,214  INFO Injector:96 
2026-06-19T15:29:29,214  INFO Injector:85 org.matsim.core.router.util.TravelTime @com.google.inject.name.Named("dvrp_initial")
2026-06-19T15:29:29,215  INFO Injector:86   --> provider: FactoryProxy{key=Key[type=org.matsim.core.router.util.TravelTime, annotation=@com.google.inject.name.Named("dvrp_initial")], provider=com.google.inject.internal.ConstructorBindingImpl$Factory@6a9344f5}[Scopes.SINGLETON]
2026-06-19T15:29:29,215  INFO Injector:87   --> source: org.matsim.contrib.dvrp.trafficmonitoring.DvrpTravelTimeModule.install(DvrpTravelTimeModule.java:55)
2026-06-19T15:29:29,216  INFO Injector:89   --> scope: eager singleton
2026-06-19T15:29:29,216  INFO Injector:92   --> target: Key[type=org.matsim.contrib.dvrp.trafficmonitoring.QSimFreeSpeedTravelTime, annotation=[none]]
2026-06-19T15:29:29,217  INFO Injector:94   ==full==> LinkedKeyBinding{key=Key[type=org.matsim.core.router.util.TravelTime, annotation=@com.google.inject.name.Named("dvrp_initial")], source=org.matsim.contrib.dvrp.trafficmonitoring.DvrpTravelTimeModule.install(DvrpTravelTimeModule.java:55), scope=eager singleton, target=Key[type=org.matsim.contrib.dvrp.trafficmonitoring.QSimFreeSpeedTravelTime, annotation=[none]]}
2026-06-19T15:29:29,217  INFO Injector:96 
2026-06-19T15:29:29,218  INFO Injector:85 org.matsim.core.router.util.TravelTime @com.google.inject.name.Named("dvrp_observed")
2026-06-19T15:29:29,219  INFO Injector:86   --> provider: FactoryProxy{key=Key[type=org.matsim.core.router.util.TravelTime, annotation=@com.google.inject.name.Named("dvrp_observed")], provider=org.matsim.core.trafficmonitoring.TravelTimeCalculatorModule$1@2938127d[Scopes.SINGLETON]}
2026-06-19T15:29:29,219  INFO Injector:87   --> source: org.matsim.contrib.dvrp.trafficmonitoring.DvrpTravelTimeModule.install(DvrpTravelTimeModule.java:58)
2026-06-19T15:29:29,220  INFO Injector:89   --> scope: Scopes.NO_SCOPE
2026-06-19T15:29:29,220  INFO Injector:92   --> target: Key[type=org.matsim.core.router.util.TravelTime, annotation=@com.google.inject.name.Named("car")]
2026-06-19T15:29:29,221  INFO Injector:94   ==full==> LinkedKeyBinding{key=Key[type=org.matsim.core.router.util.TravelTime, annotation=@com.google.inject.name.Named("dvrp_observed")], source=org.matsim.contrib.dvrp.trafficmonitoring.DvrpTravelTimeModule.install(DvrpTravelTimeModule.java:58), scope=Scopes.NO_SCOPE, target=Key[type=org.matsim.core.router.util.TravelTime, annotation=@com.google.inject.name.Named("car")]}
2026-06-19T15:29:29,222  INFO Injector:96 
2026-06-19T15:29:29,222  INFO Injector:85 org.matsim.core.router.util.TravelTime @com.google.inject.name.Named("dvrp_estimated")
2026-06-19T15:29:29,223  INFO Injector:86   --> provider: FactoryProxy{key=Key[type=org.matsim.core.router.util.TravelTime, annotation=@com.google.inject.name.Named("dvrp_estimated")], provider=FactoryProxy{key=Key[type=org.matsim.contrib.dvrp.trafficmonitoring.DvrpTravelTimeEstimator, annotation=[none]], provider=com.google.inject.internal.ConstructorBindingImpl$Factory@5584d9c6[Scopes.SINGLETON]}}
2026-06-19T15:29:29,223  INFO Injector:87   --> source: org.matsim.contrib.dvrp.trafficmonitoring.DvrpTravelTimeModule.install(DvrpTravelTimeModule.java:60)
2026-06-19T15:29:29,224  INFO Injector:89   --> scope: Scopes.NO_SCOPE
2026-06-19T15:29:29,224  INFO Injector:92   --> target: Key[type=org.matsim.contrib.dvrp.trafficmonitoring.DvrpTravelTimeEstimator, annotation=[none]]
2026-06-19T15:29:29,225  INFO Injector:94   ==full==> LinkedKeyBinding{key=Key[type=org.matsim.core.router.util.TravelTime, annotation=@com.google.inject.name.Named("dvrp_estimated")], source=org.matsim.contrib.dvrp.trafficmonitoring.DvrpTravelTimeModule.install(DvrpTravelTimeModule.java:60), scope=Scopes.NO_SCOPE, target=Key[type=org.matsim.contrib.dvrp.trafficmonitoring.DvrpTravelTimeEstimator, annotation=[none]]}
2026-06-19T15:29:29,226  INFO Injector:96 
2026-06-19T15:29:29,226  INFO Injector:85 org.matsim.core.mobsim.framework.listeners.MobsimListener @com.google.inject.internal.Element(setName=,uniqueId=186, type=MULTIBINDER, keyType=)
2026-06-19T15:29:29,227  INFO Injector:86   --> provider: FactoryProxy{key=Key[type=org.matsim.core.mobsim.framework.listeners.MobsimListener, annotation=@com.google.inject.internal.Element(setName=,uniqueId=186, type=MULTIBINDER, keyType=)], provider=com.google.inject.internal.ConstructorBindingImpl$Factory@5584d9c6[Scopes.SINGLETON]}
2026-06-19T15:29:29,227  INFO Injector:87   --> source: org.matsim.contrib.dvrp.trafficmonitoring.DvrpTravelTimeModule.install(DvrpTravelTimeModule.java:63)
2026-06-19T15:29:29,228  INFO Injector:89   --> scope: Scopes.NO_SCOPE
2026-06-19T15:29:29,228  INFO Injector:92   --> target: Key[type=org.matsim.contrib.dvrp.trafficmonitoring.DvrpOfflineTravelTimeEstimator, annotation=[none]]
2026-06-19T15:29:29,228  INFO Injector:94   ==full==> LinkedKeyBinding{key=Key[type=org.matsim.core.mobsim.framework.listeners.MobsimListener, annotation=@com.google.inject.internal.Element(setName=,uniqueId=186, type=MULTIBINDER, keyType=)], source=org.matsim.contrib.dvrp.trafficmonitoring.DvrpTravelTimeModule.install(DvrpTravelTimeModule.java:63), scope=Scopes.NO_SCOPE, target=Key[type=org.matsim.contrib.dvrp.trafficmonitoring.DvrpOfflineTravelTimeEstimator, annotation=[none]]}
2026-06-19T15:29:29,229  INFO Injector:96 
2026-06-19T15:29:29,229  INFO Injector:85 org.matsim.core.controler.listener.ControlerListener @com.google.inject.internal.Element(setName=,uniqueId=187, type=MULTIBINDER, keyType=)
2026-06-19T15:29:29,230  INFO Injector:86   --> provider: FactoryProxy{key=Key[type=org.matsim.core.controler.listener.ControlerListener, annotation=@com.google.inject.internal.Element(setName=,uniqueId=187, type=MULTIBINDER, keyType=)], provider=com.google.inject.internal.ConstructorBindingImpl$Factory@5584d9c6[Scopes.SINGLETON]}
2026-06-19T15:29:29,230  INFO Injector:87   --> source: org.matsim.contrib.dvrp.trafficmonitoring.DvrpTravelTimeModule.install(DvrpTravelTimeModule.java:64)
2026-06-19T15:29:29,230  INFO Injector:89   --> scope: Scopes.NO_SCOPE
2026-06-19T15:29:29,231  INFO Injector:92   --> target: Key[type=org.matsim.contrib.dvrp.trafficmonitoring.DvrpOfflineTravelTimeEstimator, annotation=[none]]
2026-06-19T15:29:29,231  INFO Injector:94   ==full==> LinkedKeyBinding{key=Key[type=org.matsim.core.controler.listener.ControlerListener, annotation=@com.google.inject.internal.Element(setName=,uniqueId=187, type=MULTIBINDER, keyType=)], source=org.matsim.contrib.dvrp.trafficmonitoring.DvrpTravelTimeModule.install(DvrpTravelTimeModule.java:64), scope=Scopes.NO_SCOPE, target=Key[type=org.matsim.contrib.dvrp.trafficmonitoring.DvrpOfflineTravelTimeEstimator, annotation=[none]]}
2026-06-19T15:29:29,231  INFO Injector:96 
2026-06-19T15:29:29,232  INFO Injector:85 org.matsim.contrib.dvrp.trafficmonitoring.DvrpTravelTimeEstimator 
2026-06-19T15:29:29,233  INFO Injector:86   --> provider: FactoryProxy{key=Key[type=org.matsim.contrib.dvrp.trafficmonitoring.DvrpTravelTimeEstimator, annotation=[none]], provider=com.google.inject.internal.ConstructorBindingImpl$Factory@5584d9c6[Scopes.SINGLETON]}
2026-06-19T15:29:29,233  INFO Injector:87   --> source: org.matsim.contrib.dvrp.trafficmonitoring.DvrpTravelTimeModule.install(DvrpTravelTimeModule.java:76)
2026-06-19T15:29:29,234  INFO Injector:89   --> scope: Scopes.NO_SCOPE
2026-06-19T15:29:29,236  INFO Injector:92   --> target: Key[type=org.matsim.contrib.dvrp.trafficmonitoring.DvrpOfflineTravelTimeEstimator, annotation=[none]]
2026-06-19T15:29:29,236  INFO Injector:94   ==full==> LinkedKeyBinding{key=Key[type=org.matsim.contrib.dvrp.trafficmonitoring.DvrpTravelTimeEstimator, annotation=[none]], source=org.matsim.contrib.dvrp.trafficmonitoring.DvrpTravelTimeModule.install(DvrpTravelTimeModule.java:76), scope=Scopes.NO_SCOPE, target=Key[type=org.matsim.contrib.dvrp.trafficmonitoring.DvrpOfflineTravelTimeEstimator, annotation=[none]]}
2026-06-19T15:29:29,236  INFO Injector:96 
2026-06-19T15:29:29,237  INFO Injector:85 org.matsim.contrib.zone.skims.TravelTimeMatrix 
2026-06-19T15:29:29,237  INFO Injector:86   --> provider: org.matsim.contrib.dvrp.run.DvrpModule$1@50fb33a[Scopes.SINGLETON]
2026-06-19T15:29:29,238  INFO Injector:87   --> source: org.matsim.contrib.dvrp.run.DvrpModule.install(DvrpModule.java:75)
2026-06-19T15:29:29,238  INFO Injector:89   --> scope: Scopes.SINGLETON
2026-06-19T15:29:29,238  INFO Injector:94   ==full==> ProviderInstanceBinding{key=Key[type=org.matsim.contrib.zone.skims.TravelTimeMatrix, annotation=[none]], source=org.matsim.contrib.dvrp.run.DvrpModule.install(DvrpModule.java:75), scope=Scopes.SINGLETON, provider=org.matsim.contrib.dvrp.run.DvrpModule$1@50fb33a}
2026-06-19T15:29:29,239  INFO Injector:96 
2026-06-19T15:29:29,239  INFO Injector:85 org.matsim.api.core.v01.network.Network @com.google.inject.name.Named("dvrp_routing")
2026-06-19T15:29:29,240  INFO Injector:86   --> provider: Key[type=org.matsim.contrib.dvrp.router.DvrpGlobalRoutingNetworkProvider, annotation=[none]][Scopes.SINGLETON]
2026-06-19T15:29:29,240  INFO Injector:87   --> source: org.matsim.contrib.dvrp.run.DvrpModule.install(DvrpModule.java:92)
2026-06-19T15:29:29,240  INFO Injector:89   --> scope: eager singleton
2026-06-19T15:29:29,241  INFO Injector:94   ==full==> ProviderKeyBinding{key=Key[type=org.matsim.api.core.v01.network.Network, annotation=@com.google.inject.name.Named("dvrp_routing")], source=org.matsim.contrib.dvrp.run.DvrpModule.install(DvrpModule.java:92), scope=eager singleton, provider=Key[type=org.matsim.contrib.dvrp.router.DvrpGlobalRoutingNetworkProvider, annotation=[none]]}
2026-06-19T15:29:29,241  INFO Injector:96 
2026-06-19T15:29:29,241  INFO Injector:85 org.matsim.core.mobsim.qsim.AbstractQSimModule @com.google.inject.internal.Element(setName=,uniqueId=188, type=MULTIBINDER, keyType=)
2026-06-19T15:29:29,242  INFO Injector:86   --> provider: ConstantFactory{value=org.matsim.contrib.dvrp.run.DvrpModule$2@6732726}[Scopes.SINGLETON]
2026-06-19T15:29:29,242  INFO Injector:87   --> source: org.matsim.contrib.dvrp.run.DvrpModule.install(DvrpModule.java:96)
2026-06-19T15:29:29,242  INFO Injector:89   --> scope: eager singleton
2026-06-19T15:29:29,243  INFO Injector:94   ==full==> InstanceBinding{key=Key[type=org.matsim.core.mobsim.qsim.AbstractQSimModule, annotation=@com.google.inject.internal.Element(setName=,uniqueId=188, type=MULTIBINDER, keyType=)], source=org.matsim.contrib.dvrp.run.DvrpModule.install(DvrpModule.java:96), instance=org.matsim.contrib.dvrp.run.DvrpModule$2@6732726}
2026-06-19T15:29:29,243  INFO Injector:96 
2026-06-19T15:29:29,243  INFO Injector:85 org.matsim.core.mobsim.qsim.AbstractQSimModule @com.google.inject.internal.Element(setName=,uniqueId=189, type=MULTIBINDER, keyType=)
2026-06-19T15:29:29,244  INFO Injector:86   --> provider: ConstantFactory{value=org.matsim.core.mobsim.qsim.PreplanningEngineQSimModule@474821de}[Scopes.SINGLETON]
2026-06-19T15:29:29,244  INFO Injector:87   --> source: org.matsim.contrib.dvrp.passenger.PassengerModule.install(PassengerModule.java:39)
2026-06-19T15:29:29,244  INFO Injector:89   --> scope: eager singleton
2026-06-19T15:29:29,246  INFO Injector:94   ==full==> InstanceBinding{key=Key[type=org.matsim.core.mobsim.qsim.AbstractQSimModule, annotation=@com.google.inject.internal.Element(setName=,uniqueId=189, type=MULTIBINDER, keyType=)], source=org.matsim.contrib.dvrp.passenger.PassengerModule.install(PassengerModule.java:39), instance=org.matsim.core.mobsim.qsim.PreplanningEngineQSimModule@474821de}
2026-06-19T15:29:29,246  INFO Injector:96 
2026-06-19T15:29:29,246  INFO Injector:85 org.matsim.contrib.dvrp.run.DvrpMode @com.google.inject.internal.Element(setName=,uniqueId=165, type=MULTIBINDER, keyType=)
2026-06-19T15:29:29,247  INFO Injector:86   --> provider: ConstantFactory{value=@org.matsim.contrib.dvrp.run.DvrpMode(value=drt)}[Scopes.SINGLETON]
2026-06-19T15:29:29,247  INFO Injector:87   --> source: org.matsim.contrib.dvrp.run.DvrpModes.registerDvrpMode(DvrpModes.java:40)
2026-06-19T15:29:29,247  INFO Injector:89   --> scope: eager singleton
2026-06-19T15:29:29,248  INFO Injector:94   ==full==> InstanceBinding{key=Key[type=org.matsim.contrib.dvrp.run.DvrpMode, annotation=@com.google.inject.internal.Element(setName=,uniqueId=165, type=MULTIBINDER, keyType=)], source=org.matsim.contrib.dvrp.run.DvrpModes.registerDvrpMode(DvrpModes.java:40), instance=@org.matsim.contrib.dvrp.run.DvrpMode(value=drt)}
2026-06-19T15:29:29,248  INFO Injector:96 
2026-06-19T15:29:29,248  INFO Injector:85 org.matsim.api.core.v01.network.Network @org.matsim.contrib.dvrp.run.DvrpMode(value=drt)
2026-06-19T15:29:29,249  INFO Injector:86   --> provider: FactoryProxy{key=Key[type=org.matsim.api.core.v01.network.Network, annotation=@org.matsim.contrib.dvrp.run.DvrpMode(value=drt)], provider=Key[type=org.matsim.contrib.dvrp.router.DvrpGlobalRoutingNetworkProvider, annotation=[none]][Scopes.SINGLETON]}
2026-06-19T15:29:29,249  INFO Injector:87   --> source: org.matsim.core.modal.AbstractModalModule.bindModal(AbstractModalModule.java:59)
2026-06-19T15:29:29,250  INFO Injector:89   --> scope: Scopes.NO_SCOPE
2026-06-19T15:29:29,250  INFO Injector:92   --> target: Key[type=org.matsim.api.core.v01.network.Network, annotation=@com.google.inject.name.Named("dvrp_routing")]
2026-06-19T15:29:29,251  INFO Injector:94   ==full==> LinkedKeyBinding{key=Key[type=org.matsim.api.core.v01.network.Network, annotation=@org.matsim.contrib.dvrp.run.DvrpMode(value=drt)], source=org.matsim.core.modal.AbstractModalModule.bindModal(AbstractModalModule.java:59), scope=Scopes.NO_SCOPE, target=Key[type=org.matsim.api.core.v01.network.Network, annotation=@com.google.inject.name.Named("dvrp_routing")]}
2026-06-19T15:29:29,252  INFO Injector:96 
2026-06-19T15:29:29,254  INFO Injector:85 org.matsim.contrib.zone.skims.TravelTimeMatrix @org.matsim.contrib.dvrp.run.DvrpMode(value=drt)
2026-06-19T15:29:29,254  INFO Injector:86   --> provider: FactoryProxy{key=Key[type=org.matsim.contrib.zone.skims.TravelTimeMatrix, annotation=@org.matsim.contrib.dvrp.run.DvrpMode(value=drt)], provider=org.matsim.contrib.dvrp.run.DvrpModule$1@50fb33a[Scopes.SINGLETON]}
2026-06-19T15:29:29,255  INFO Injector:87   --> source: org.matsim.core.modal.AbstractModalModule.bindModal(AbstractModalModule.java:59)
2026-06-19T15:29:29,255  INFO Injector:89   --> scope: Scopes.NO_SCOPE
2026-06-19T15:29:29,256  INFO Injector:92   --> target: Key[type=org.matsim.contrib.zone.skims.TravelTimeMatrix, annotation=[none]]
2026-06-19T15:29:29,257  INFO Injector:94   ==full==> LinkedKeyBinding{key=Key[type=org.matsim.contrib.zone.skims.TravelTimeMatrix, annotation=@org.matsim.contrib.dvrp.run.DvrpMode(value=drt)], source=org.matsim.core.modal.AbstractModalModule.bindModal(AbstractModalModule.java:59), scope=Scopes.NO_SCOPE, target=Key[type=org.matsim.contrib.zone.skims.TravelTimeMatrix, annotation=[none]]}
2026-06-19T15:29:29,257  INFO Injector:96 
2026-06-19T15:29:29,258  INFO Injector:85 org.matsim.core.router.util.TravelTime @org.matsim.contrib.dvrp.run.DvrpMode(value=drt)
2026-06-19T15:29:29,258  INFO Injector:86   --> provider: FactoryProxy{key=Key[type=org.matsim.core.router.util.TravelTime, annotation=@org.matsim.contrib.dvrp.run.DvrpMode(value=drt)], provider=FactoryProxy{key=Key[type=org.matsim.core.router.util.TravelTime, annotation=@com.google.inject.name.Named("dvrp_estimated")], provider=FactoryProxy{key=Key[type=org.matsim.contrib.dvrp.trafficmonitoring.DvrpTravelTimeEstimator, annotation=[none]], provider=com.google.inject.internal.ConstructorBindingImpl$Factory@5584d9c6[Scopes.SINGLETON]}}}
2026-06-19T15:29:29,258  INFO Injector:87   --> source: org.matsim.core.modal.AbstractModalModule.bindModal(AbstractModalModule.java:59)
2026-06-19T15:29:29,259  INFO Injector:89   --> scope: Scopes.NO_SCOPE
2026-06-19T15:29:29,259  INFO Injector:92   --> target: Key[type=org.matsim.core.router.util.TravelTime, annotation=@com.google.inject.name.Named("dvrp_estimated")]
2026-06-19T15:29:29,260  INFO Injector:94   ==full==> LinkedKeyBinding{key=Key[type=org.matsim.core.router.util.TravelTime, annotation=@org.matsim.contrib.dvrp.run.DvrpMode(value=drt)], source=org.matsim.core.modal.AbstractModalModule.bindModal(AbstractModalModule.java:59), scope=Scopes.NO_SCOPE, target=Key[type=org.matsim.core.router.util.TravelTime, annotation=@com.google.inject.name.Named("dvrp_estimated")]}
2026-06-19T15:29:29,260  INFO Injector:96 
2026-06-19T15:29:29,260  INFO Injector:85 org.matsim.core.router.costcalculators.TravelDisutilityFactory @org.matsim.contrib.dvrp.run.DvrpMode(value=drt)
2026-06-19T15:29:29,261  INFO Injector:86   --> provider: ConstantFactory{value=org.matsim.contrib.drt.run.DrtModeModule$$Lambda/0x0000000014356958@3c9c6245}[Scopes.SINGLETON]
2026-06-19T15:29:29,261  INFO Injector:87   --> source: org.matsim.core.modal.AbstractModalModule.bindModal(AbstractModalModule.java:59)
2026-06-19T15:29:29,262  INFO Injector:89   --> scope: eager singleton
2026-06-19T15:29:29,262  INFO Injector:94   ==full==> InstanceBinding{key=Key[type=org.matsim.core.router.costcalculators.TravelDisutilityFactory, annotation=@org.matsim.contrib.dvrp.run.DvrpMode(value=drt)], source=org.matsim.core.modal.AbstractModalModule.bindModal(AbstractModalModule.java:59), instance=org.matsim.contrib.drt.run.DrtModeModule$$Lambda/0x0000000014356958@3c9c6245}
2026-06-19T15:29:29,262  INFO Injector:96 
2026-06-19T15:29:29,262  INFO Injector:85 org.matsim.contrib.dvrp.fleet.FleetSpecification @org.matsim.contrib.dvrp.run.DvrpMode(value=drt)
2026-06-19T15:29:29,263  INFO Injector:86   --> provider: org.matsim.contrib.dvrp.fleet.FleetModule$$Lambda/0x00000000143577d8@6d0be7ab[Scopes.SINGLETON]
2026-06-19T15:29:29,264  INFO Injector:87   --> source: org.matsim.core.modal.AbstractModalModule.bindModal(AbstractModalModule.java:59)
2026-06-19T15:29:29,265  INFO Injector:89   --> scope: eager singleton
2026-06-19T15:29:29,265  INFO Injector:94   ==full==> ProviderInstanceBinding{key=Key[type=org.matsim.contrib.dvrp.fleet.FleetSpecification, annotation=@org.matsim.contrib.dvrp.run.DvrpMode(value=drt)], source=org.matsim.core.modal.AbstractModalModule.bindModal(AbstractModalModule.java:59), scope=eager singleton, provider=org.matsim.contrib.dvrp.fleet.FleetModule$$Lambda/0x00000000143577d8@6d0be7ab}
2026-06-19T15:29:29,266  INFO Injector:96 
2026-06-19T15:29:29,267  INFO Injector:85 org.matsim.core.mobsim.qsim.AbstractQSimModule @com.google.inject.internal.Element(setName=,uniqueId=166, type=MULTIBINDER, keyType=)
2026-06-19T15:29:29,267  INFO Injector:86   --> provider: ConstantFactory{value=org.matsim.contrib.dvrp.fleet.FleetModule$2@3d64c581}[Scopes.SINGLETON]
2026-06-19T15:29:29,268  INFO Injector:87   --> source: org.matsim.contrib.dvrp.fleet.FleetModule.install(FleetModule.java:92)
2026-06-19T15:29:29,268  INFO Injector:89   --> scope: eager singleton
2026-06-19T15:29:29,269  INFO Injector:94   ==full==> InstanceBinding{key=Key[type=org.matsim.core.mobsim.qsim.AbstractQSimModule, annotation=@com.google.inject.internal.Element(setName=,uniqueId=166, type=MULTIBINDER, keyType=)], source=org.matsim.contrib.dvrp.fleet.FleetModule.install(FleetModule.java:92), instance=org.matsim.contrib.dvrp.fleet.FleetModule$2@3d64c581}
2026-06-19T15:29:29,269  INFO Injector:96 
2026-06-19T15:29:29,270  INFO Injector:85 org.matsim.contrib.dvrp.fleet.FleetControlerListener @org.matsim.contrib.dvrp.run.DvrpMode(value=drt)
2026-06-19T15:29:29,270  INFO Injector:86   --> provider: org.matsim.core.modal.ModalProviders$1@75d982d3[Scopes.SINGLETON]
2026-06-19T15:29:29,271  INFO Injector:87   --> source: org.matsim.core.modal.AbstractModalModule.bindModal(AbstractModalModule.java:59)
2026-06-19T15:29:29,271  INFO Injector:89   --> scope: Scopes.SINGLETON
2026-06-19T15:29:29,272  INFO Injector:94   ==full==> ProviderInstanceBinding{key=Key[type=org.matsim.contrib.dvrp.fleet.FleetControlerListener, annotation=@org.matsim.contrib.dvrp.run.DvrpMode(value=drt)], source=org.matsim.core.modal.AbstractModalModule.bindModal(AbstractModalModule.java:59), scope=Scopes.SINGLETON, provider=org.matsim.core.modal.ModalProviders$1@75d982d3}
2026-06-19T15:29:29,272  INFO Injector:96 
2026-06-19T15:29:29,272  INFO Injector:85 org.matsim.core.controler.listener.ControlerListener @com.google.inject.internal.Element(setName=,uniqueId=167, type=MULTIBINDER, keyType=)
2026-06-19T15:29:29,273  INFO Injector:86   --> provider: FactoryProxy{key=Key[type=org.matsim.core.controler.listener.ControlerListener, annotation=@com.google.inject.internal.Element(setName=,uniqueId=167, type=MULTIBINDER, keyType=)], provider=org.matsim.core.modal.ModalProviders$1@75d982d3[Scopes.SINGLETON]}
2026-06-19T15:29:29,275  INFO Injector:87   --> source: org.matsim.contrib.dvrp.fleet.FleetModule.install(FleetModule.java:111)
2026-06-19T15:29:29,275  INFO Injector:89   --> scope: Scopes.NO_SCOPE
2026-06-19T15:29:29,276  INFO Injector:92   --> target: Key[type=org.matsim.contrib.dvrp.fleet.FleetControlerListener, annotation=@org.matsim.contrib.dvrp.run.DvrpMode(value=drt)]
2026-06-19T15:29:29,276  INFO Injector:94   ==full==> LinkedKeyBinding{key=Key[type=org.matsim.core.controler.listener.ControlerListener, annotation=@com.google.inject.internal.Element(setName=,uniqueId=167, type=MULTIBINDER, keyType=)], source=org.matsim.contrib.dvrp.fleet.FleetModule.install(FleetModule.java:111), scope=Scopes.NO_SCOPE, target=Key[type=org.matsim.contrib.dvrp.fleet.FleetControlerListener, annotation=@org.matsim.contrib.dvrp.run.DvrpMode(value=drt)]}
2026-06-19T15:29:29,276  INFO Injector:96 
2026-06-19T15:29:29,277  INFO Injector:85 org.matsim.vehicles.VehicleType @org.matsim.contrib.dvrp.run.DvrpMode(value=drt)
2026-06-19T15:29:29,277  INFO Injector:86   --> provider: ConstantFactory{value=org.matsim.vehicles.VehicleType@1d4fb213}[Scopes.SINGLETON]
2026-06-19T15:29:29,278  INFO Injector:87   --> source: org.matsim.core.modal.AbstractModalModule.bindModal(AbstractModalModule.java:59)
2026-06-19T15:29:29,278  INFO Injector:89   --> scope: eager singleton
2026-06-19T15:29:29,278  INFO Injector:94   ==full==> InstanceBinding{key=Key[type=org.matsim.vehicles.VehicleType, annotation=@org.matsim.contrib.dvrp.run.DvrpMode(value=drt)], source=org.matsim.core.modal.AbstractModalModule.bindModal(AbstractModalModule.java:59), instance=org.matsim.vehicles.VehicleType@1d4fb213}
2026-06-19T15:29:29,279  INFO Injector:96 
2026-06-19T15:29:29,279  INFO Injector:85 org.matsim.contrib.drt.analysis.zonal.DrtZonalSystem @org.matsim.contrib.dvrp.run.DvrpMode(value=drt)
2026-06-19T15:29:29,279  INFO Injector:86   --> provider: org.matsim.core.modal.ModalProviders$1@4f89331f[Scopes.SINGLETON]
2026-06-19T15:29:29,280  INFO Injector:87   --> source: org.matsim.core.modal.AbstractModalModule.bindModal(AbstractModalModule.java:59)
2026-06-19T15:29:29,280  INFO Injector:89   --> scope: eager singleton
2026-06-19T15:29:29,280  INFO Injector:94   ==full==> ProviderInstanceBinding{key=Key[type=org.matsim.contrib.drt.analysis.zonal.DrtZonalSystem, annotation=@org.matsim.contrib.dvrp.run.DvrpMode(value=drt)], source=org.matsim.core.modal.AbstractModalModule.bindModal(AbstractModalModule.java:59), scope=eager singleton, provider=org.matsim.core.modal.ModalProviders$1@4f89331f}
2026-06-19T15:29:29,281  INFO Injector:96 
2026-06-19T15:29:29,281  INFO Injector:85 org.matsim.contrib.drt.analysis.zonal.DrtZoneTargetLinkSelector @org.matsim.contrib.dvrp.run.DvrpMode(value=drt)
2026-06-19T15:29:29,281  INFO Injector:86   --> provider: org.matsim.core.modal.ModalProviders$1@618ff5c2[Scopes.SINGLETON]
2026-06-19T15:29:29,282  INFO Injector:87   --> source: org.matsim.core.modal.AbstractModalModule.bindModal(AbstractModalModule.java:59)
2026-06-19T15:29:29,282  INFO Injector:89   --> scope: eager singleton
2026-06-19T15:29:29,282  INFO Injector:94   ==full==> ProviderInstanceBinding{key=Key[type=org.matsim.contrib.drt.analysis.zonal.DrtZoneTargetLinkSelector, annotation=@org.matsim.contrib.dvrp.run.DvrpMode(value=drt)], source=org.matsim.core.modal.AbstractModalModule.bindModal(AbstractModalModule.java:59), scope=eager singleton, provider=org.matsim.core.modal.ModalProviders$1@618ff5c2}
2026-06-19T15:29:29,283  INFO Injector:96 
2026-06-19T15:29:29,284  INFO Injector:85 org.matsim.contrib.drt.analysis.zonal.ZonalIdleVehicleXYVisualiser @org.matsim.contrib.dvrp.run.DvrpMode(value=drt)
2026-06-19T15:29:29,284  INFO Injector:86   --> provider: org.matsim.core.modal.ModalProviders$1@16727bf0[Scopes.SINGLETON]
2026-06-19T15:29:29,285  INFO Injector:87   --> source: org.matsim.core.modal.AbstractModalModule.bindModal(AbstractModalModule.java:59)
2026-06-19T15:29:29,285  INFO Injector:89   --> scope: eager singleton
2026-06-19T15:29:29,285  INFO Injector:94   ==full==> ProviderInstanceBinding{key=Key[type=org.matsim.contrib.drt.analysis.zonal.ZonalIdleVehicleXYVisualiser, annotation=@org.matsim.contrib.dvrp.run.DvrpMode(value=drt)], source=org.matsim.core.modal.AbstractModalModule.bindModal(AbstractModalModule.java:59), scope=eager singleton, provider=org.matsim.core.modal.ModalProviders$1@16727bf0}
2026-06-19T15:29:29,285  INFO Injector:96 
2026-06-19T15:29:29,286  INFO Injector:85 org.matsim.core.controler.listener.ControlerListener @com.google.inject.internal.Element(setName=,uniqueId=168, type=MULTIBINDER, keyType=)
2026-06-19T15:29:29,286  INFO Injector:86   --> provider: FactoryProxy{key=Key[type=org.matsim.core.controler.listener.ControlerListener, annotation=@com.google.inject.internal.Element(setName=,uniqueId=168, type=MULTIBINDER, keyType=)], provider=org.matsim.core.modal.ModalProviders$1@16727bf0[Scopes.SINGLETON]}
2026-06-19T15:29:29,286  INFO Injector:87   --> source: org.matsim.contrib.drt.analysis.zonal.DrtModeZonalSystemModule.install(DrtModeZonalSystemModule.java:97)
2026-06-19T15:29:29,287  INFO Injector:89   --> scope: Scopes.NO_SCOPE
2026-06-19T15:29:29,287  INFO Injector:92   --> target: Key[type=org.matsim.contrib.drt.analysis.zonal.ZonalIdleVehicleXYVisualiser, annotation=@org.matsim.contrib.dvrp.run.DvrpMode(value=drt)]
2026-06-19T15:29:29,287  INFO Injector:94   ==full==> LinkedKeyBinding{key=Key[type=org.matsim.core.controler.listener.ControlerListener, annotation=@com.google.inject.internal.Element(setName=,uniqueId=168, type=MULTIBINDER, keyType=)], source=org.matsim.contrib.drt.analysis.zonal.DrtModeZonalSystemModule.install(DrtModeZonalSystemModule.java:97), scope=Scopes.NO_SCOPE, target=Key[type=org.matsim.contrib.drt.analysis.zonal.ZonalIdleVehicleXYVisualiser, annotation=@org.matsim.contrib.dvrp.run.DvrpMode(value=drt)]}
2026-06-19T15:29:29,287  INFO Injector:96 
2026-06-19T15:29:29,288  INFO Injector:85 org.matsim.core.events.handler.EventHandler @com.google.inject.internal.Element(setName=,uniqueId=169, type=MULTIBINDER, keyType=)
2026-06-19T15:29:29,288  INFO Injector:86   --> provider: FactoryProxy{key=Key[type=org.matsim.core.events.handler.EventHandler, annotation=@com.google.inject.internal.Element(setName=,uniqueId=169, type=MULTIBINDER, keyType=)], provider=org.matsim.core.modal.ModalProviders$1@16727bf0[Scopes.SINGLETON]}
2026-06-19T15:29:29,289  INFO Injector:87   --> source: org.matsim.contrib.drt.analysis.zonal.DrtModeZonalSystemModule.install(DrtModeZonalSystemModule.java:98)
2026-06-19T15:29:29,289  INFO Injector:89   --> scope: Scopes.NO_SCOPE
2026-06-19T15:29:29,290  INFO Injector:92   --> target: Key[type=org.matsim.contrib.drt.analysis.zonal.ZonalIdleVehicleXYVisualiser, annotation=@org.matsim.contrib.dvrp.run.DvrpMode(value=drt)]
2026-06-19T15:29:29,291  INFO Injector:94   ==full==> LinkedKeyBinding{key=Key[type=org.matsim.core.events.handler.EventHandler, annotation=@com.google.inject.internal.Element(setName=,uniqueId=169, type=MULTIBINDER, keyType=)], source=org.matsim.contrib.drt.analysis.zonal.DrtModeZonalSystemModule.install(DrtModeZonalSystemModule.java:98), scope=Scopes.NO_SCOPE, target=Key[type=org.matsim.contrib.drt.analysis.zonal.ZonalIdleVehicleXYVisualiser, annotation=@org.matsim.contrib.dvrp.run.DvrpMode(value=drt)]}
2026-06-19T15:29:29,291  INFO Injector:96 
2026-06-19T15:29:29,291  INFO Injector:85 org.matsim.contrib.drt.analysis.zonal.DrtZonalWaitTimesAnalyzer @org.matsim.contrib.dvrp.run.DvrpMode(value=drt)
2026-06-19T15:29:29,292  INFO Injector:86   --> provider: org.matsim.core.modal.ModalProviders$1@2f84acf7[Scopes.SINGLETON]
2026-06-19T15:29:29,292  INFO Injector:87   --> source: org.matsim.core.modal.AbstractModalModule.bindModal(AbstractModalModule.java:59)
2026-06-19T15:29:29,293  INFO Injector:89   --> scope: eager singleton
2026-06-19T15:29:29,293  INFO Injector:94   ==full==> ProviderInstanceBinding{key=Key[type=org.matsim.contrib.drt.analysis.zonal.DrtZonalWaitTimesAnalyzer, annotation=@org.matsim.contrib.dvrp.run.DvrpMode(value=drt)], source=org.matsim.core.modal.AbstractModalModule.bindModal(AbstractModalModule.java:59), scope=eager singleton, provider=org.matsim.core.modal.ModalProviders$1@2f84acf7}
2026-06-19T15:29:29,293  INFO Injector:96 
2026-06-19T15:29:29,294  INFO Injector:85 org.matsim.core.controler.listener.ControlerListener @com.google.inject.internal.Element(setName=,uniqueId=170, type=MULTIBINDER, keyType=)
2026-06-19T15:29:29,295  INFO Injector:86   --> provider: FactoryProxy{key=Key[type=org.matsim.core.controler.listener.ControlerListener, annotation=@com.google.inject.internal.Element(setName=,uniqueId=170, type=MULTIBINDER, keyType=)], provider=org.matsim.core.modal.ModalProviders$1@2f84acf7[Scopes.SINGLETON]}
2026-06-19T15:29:29,295  INFO Injector:87   --> source: org.matsim.contrib.drt.analysis.zonal.DrtModeZonalSystemModule.install(DrtModeZonalSystemModule.java:103)
2026-06-19T15:29:29,295  INFO Injector:89   --> scope: Scopes.NO_SCOPE
2026-06-19T15:29:29,296  INFO Injector:92   --> target: Key[type=org.matsim.contrib.drt.analysis.zonal.DrtZonalWaitTimesAnalyzer, annotation=@org.matsim.contrib.dvrp.run.DvrpMode(value=drt)]
2026-06-19T15:29:29,296  INFO Injector:94   ==full==> LinkedKeyBinding{key=Key[type=org.matsim.core.controler.listener.ControlerListener, annotation=@com.google.inject.internal.Element(setName=,uniqueId=170, type=MULTIBINDER, keyType=)], source=org.matsim.contrib.drt.analysis.zonal.DrtModeZonalSystemModule.install(DrtModeZonalSystemModule.java:103), scope=Scopes.NO_SCOPE, target=Key[type=org.matsim.contrib.drt.analysis.zonal.DrtZonalWaitTimesAnalyzer, annotation=@org.matsim.contrib.dvrp.run.DvrpMode(value=drt)]}
2026-06-19T15:29:29,297  INFO Injector:96 
2026-06-19T15:29:29,297  INFO Injector:85 org.matsim.core.mobsim.qsim.AbstractQSimModule @com.google.inject.internal.Element(setName=,uniqueId=171, type=MULTIBINDER, keyType=)
2026-06-19T15:29:29,298  INFO Injector:86   --> provider: ConstantFactory{value=org.matsim.contrib.drt.optimizer.rebalancing.mincostflow.DrtModeMinCostFlowRebalancingModule$1@5ec5ea63}[Scopes.SINGLETON]
2026-06-19T15:29:29,298  INFO Injector:87   --> source: org.matsim.contrib.drt.optimizer.rebalancing.mincostflow.DrtModeMinCostFlowRebalancingModule.install(DrtModeMinCostFlowRebalancingModule.java:57)
2026-06-19T15:29:29,298  INFO Injector:89   --> scope: eager singleton
2026-06-19T15:29:29,299  INFO Injector:94   ==full==> InstanceBinding{key=Key[type=org.matsim.core.mobsim.qsim.AbstractQSimModule, annotation=@com.google.inject.internal.Element(setName=,uniqueId=171, type=MULTIBINDER, keyType=)], source=org.matsim.contrib.drt.optimizer.rebalancing.mincostflow.DrtModeMinCostFlowRebalancingModule.install(DrtModeMinCostFlowRebalancingModule.java:57), instance=org.matsim.contrib.drt.optimizer.rebalancing.mincostflow.DrtModeMinCostFlowRebalancingModule$1@5ec5ea63}
2026-06-19T15:29:29,299  INFO Injector:96 
2026-06-19T15:29:29,299  INFO Injector:85 org.matsim.contrib.drt.optimizer.rebalancing.demandestimator.PreviousIterationDRTDemandEstimator @org.matsim.contrib.dvrp.run.DvrpMode(value=drt)
2026-06-19T15:29:29,300  INFO Injector:86   --> provider: org.matsim.core.modal.ModalProviders$1@291373d3[Scopes.SINGLETON]
2026-06-19T15:29:29,301  INFO Injector:87   --> source: org.matsim.core.modal.AbstractModalModule.bindModal(AbstractModalModule.java:59)
2026-06-19T15:29:29,301  INFO Injector:89   --> scope: eager singleton
2026-06-19T15:29:29,301  INFO Injector:94   ==full==> ProviderInstanceBinding{key=Key[type=org.matsim.contrib.drt.optimizer.rebalancing.demandestimator.PreviousIterationDRTDemandEstimator, annotation=@org.matsim.contrib.dvrp.run.DvrpMode(value=drt)], source=org.matsim.core.modal.AbstractModalModule.bindModal(AbstractModalModule.java:59), scope=eager singleton, provider=org.matsim.core.modal.ModalProviders$1@291373d3}
2026-06-19T15:29:29,302  INFO Injector:96 
2026-06-19T15:29:29,303  INFO Injector:85 org.matsim.contrib.drt.optimizer.rebalancing.demandestimator.ZonalDemandEstimator @org.matsim.contrib.dvrp.run.DvrpMode(value=drt)
2026-06-19T15:29:29,303  INFO Injector:86   --> provider: FactoryProxy{key=Key[type=org.matsim.contrib.drt.optimizer.rebalancing.demandestimator.ZonalDemandEstimator, annotation=@org.matsim.contrib.dvrp.run.DvrpMode(value=drt)], provider=org.matsim.core.modal.ModalProviders$1@291373d3[Scopes.SINGLETON]}
2026-06-19T15:29:29,303  INFO Injector:87   --> source: org.matsim.core.modal.AbstractModalModule.bindModal(AbstractModalModule.java:59)
2026-06-19T15:29:29,303  INFO Injector:89   --> scope: Scopes.NO_SCOPE
2026-06-19T15:29:29,304  INFO Injector:92   --> target: Key[type=org.matsim.contrib.drt.optimizer.rebalancing.demandestimator.PreviousIterationDRTDemandEstimator, annotation=@org.matsim.contrib.dvrp.run.DvrpMode(value=drt)]
2026-06-19T15:29:29,304  INFO Injector:94   ==full==> LinkedKeyBinding{key=Key[type=org.matsim.contrib.drt.optimizer.rebalancing.demandestimator.ZonalDemandEstimator, annotation=@org.matsim.contrib.dvrp.run.DvrpMode(value=drt)], source=org.matsim.core.modal.AbstractModalModule.bindModal(AbstractModalModule.java:59), scope=Scopes.NO_SCOPE, target=Key[type=org.matsim.contrib.drt.optimizer.rebalancing.demandestimator.PreviousIterationDRTDemandEstimator, annotation=@org.matsim.contrib.dvrp.run.DvrpMode(value=drt)]}
2026-06-19T15:29:29,304  INFO Injector:96 
2026-06-19T15:29:29,305  INFO Injector:85 org.matsim.core.events.handler.EventHandler @com.google.inject.internal.Element(setName=,uniqueId=172, type=MULTIBINDER, keyType=)
2026-06-19T15:29:29,305  INFO Injector:86   --> provider: FactoryProxy{key=Key[type=org.matsim.core.events.handler.EventHandler, annotation=@com.google.inject.internal.Element(setName=,uniqueId=172, type=MULTIBINDER, keyType=)], provider=org.matsim.core.modal.ModalProviders$1@291373d3[Scopes.SINGLETON]}
2026-06-19T15:29:29,305  INFO Injector:87   --> source: org.matsim.contrib.drt.optimizer.rebalancing.mincostflow.DrtModeMinCostFlowRebalancingModule.install(DrtModeMinCostFlowRebalancingModule.java:107)
2026-06-19T15:29:29,305  INFO Injector:89   --> scope: Scopes.NO_SCOPE
2026-06-19T15:29:29,306  INFO Injector:92   --> target: Key[type=org.matsim.contrib.drt.optimizer.rebalancing.demandestimator.PreviousIterationDRTDemandEstimator, annotation=@org.matsim.contrib.dvrp.run.DvrpMode(value=drt)]
2026-06-19T15:29:29,306  INFO Injector:94   ==full==> LinkedKeyBinding{key=Key[type=org.matsim.core.events.handler.EventHandler, annotation=@com.google.inject.internal.Element(setName=,uniqueId=172, type=MULTIBINDER, keyType=)], source=org.matsim.contrib.drt.optimizer.rebalancing.mincostflow.DrtModeMinCostFlowRebalancingModule.install(DrtModeMinCostFlowRebalancingModule.java:107), scope=Scopes.NO_SCOPE, target=Key[type=org.matsim.contrib.drt.optimizer.rebalancing.demandestimator.PreviousIterationDRTDemandEstimator, annotation=@org.matsim.contrib.dvrp.run.DvrpMode(value=drt)]}
2026-06-19T15:29:29,306  INFO Injector:96 
2026-06-19T15:29:29,307  INFO Injector:85 org.matsim.core.router.RoutingModule @com.google.inject.name.Named("drt")
2026-06-19T15:29:29,307  INFO Injector:86   --> provider: org.matsim.contrib.dvrp.router.DvrpRoutingModuleProvider@372ca2d6
2026-06-19T15:29:29,307  INFO Injector:87   --> source: org.matsim.contrib.drt.run.DrtModeRoutingModule.install(DrtModeRoutingModule.java:79)
2026-06-19T15:29:29,307  INFO Injector:89   --> scope: Scopes.NO_SCOPE
2026-06-19T15:29:29,308  INFO Injector:94   ==full==> ProviderInstanceBinding{key=Key[type=org.matsim.core.router.RoutingModule, annotation=@com.google.inject.name.Named("drt")], source=org.matsim.contrib.drt.run.DrtModeRoutingModule.install(DrtModeRoutingModule.java:79), scope=Scopes.NO_SCOPE, provider=org.matsim.contrib.dvrp.router.DvrpRoutingModuleProvider@372ca2d6}
2026-06-19T15:29:29,311  INFO Injector:96 
2026-06-19T15:29:29,312  INFO Injector:85 org.matsim.core.router.RoutingModule @com.google.inject.internal.Element(setName=@org.matsim.contrib.dvrp.run.DvrpMode(value=drt),uniqueId=173, type=MAPBINDER, keyType=org.matsim.contrib.dvrp.router.DvrpRoutingModuleProvider$Stage)
2026-06-19T15:29:29,313  INFO Injector:86   --> provider: org.matsim.contrib.dvrp.router.DvrpModeRoutingModule$DefaultMainLegRouterProvider@38ed139b
2026-06-19T15:29:29,314  INFO Injector:87   --> source: org.matsim.contrib.drt.run.DrtModeRoutingModule.install(DrtModeRoutingModule.java:80)
2026-06-19T15:29:29,314  INFO Injector:89   --> scope: Scopes.NO_SCOPE
2026-06-19T15:29:29,314  INFO Injector:94   ==full==> ProviderInstanceBinding{key=Key[type=org.matsim.core.router.RoutingModule, annotation=@com.google.inject.internal.Element(setName=@org.matsim.contrib.dvrp.run.DvrpMode(value=drt),uniqueId=173, type=MAPBINDER, keyType=org.matsim.contrib.dvrp.router.DvrpRoutingModuleProvider$Stage)], source=org.matsim.contrib.drt.run.DrtModeRoutingModule.install(DrtModeRoutingModule.java:80), scope=Scopes.NO_SCOPE, provider=org.matsim.contrib.dvrp.router.DvrpModeRoutingModule$DefaultMainLegRouterProvider@38ed139b}
2026-06-19T15:29:29,315  INFO Injector:96 
2026-06-19T15:29:29,315  INFO Injector:85 org.matsim.contrib.dvrp.router.DefaultMainLegRouter$RouteCreator @org.matsim.contrib.dvrp.run.DvrpMode(value=drt)
2026-06-19T15:29:29,316  INFO Injector:86   --> provider: org.matsim.contrib.drt.run.DrtModeRoutingModule$DrtRouteCreatorProvider@a5272be
2026-06-19T15:29:29,316  INFO Injector:87   --> source: org.matsim.core.modal.AbstractModalModule.bindModal(AbstractModalModule.java:59)
2026-06-19T15:29:29,316  INFO Injector:89   --> scope: Scopes.NO_SCOPE
2026-06-19T15:29:29,318  INFO Injector:94   ==full==> ProviderInstanceBinding{key=Key[type=org.matsim.contrib.dvrp.router.DefaultMainLegRouter$RouteCreator, annotation=@org.matsim.contrib.dvrp.run.DvrpMode(value=drt)], source=org.matsim.core.modal.AbstractModalModule.bindModal(AbstractModalModule.java:59), scope=Scopes.NO_SCOPE, provider=org.matsim.contrib.drt.run.DrtModeRoutingModule$DrtRouteCreatorProvider@a5272be}
2026-06-19T15:29:29,318  INFO Injector:96 
2026-06-19T15:29:29,319  INFO Injector:85 org.matsim.contrib.drt.routing.DrtStopNetwork @org.matsim.contrib.dvrp.run.DvrpMode(value=drt)
2026-06-19T15:29:29,319  INFO Injector:86   --> provider: org.matsim.contrib.drt.run.DrtModeRoutingModule$DrtStopNetworkProvider@58ba5b30[Scopes.SINGLETON]
2026-06-19T15:29:29,319  INFO Injector:87   --> source: org.matsim.core.modal.AbstractModalModule.bindModal(AbstractModalModule.java:59)
2026-06-19T15:29:29,319  INFO Injector:89   --> scope: eager singleton
2026-06-19T15:29:29,320  INFO Injector:94   ==full==> ProviderInstanceBinding{key=Key[type=org.matsim.contrib.drt.routing.DrtStopNetwork, annotation=@org.matsim.contrib.dvrp.run.DvrpMode(value=drt)], source=org.matsim.core.modal.AbstractModalModule.bindModal(AbstractModalModule.java:59), scope=eager singleton, provider=org.matsim.contrib.drt.run.DrtModeRoutingModule$DrtStopNetworkProvider@58ba5b30}
2026-06-19T15:29:29,320  INFO Injector:96 
2026-06-19T15:29:29,321  INFO Injector:85 org.matsim.contrib.dvrp.router.DvrpRoutingModule$AccessEgressFacilityFinder @org.matsim.contrib.dvrp.run.DvrpMode(value=drt)
2026-06-19T15:29:29,321  INFO Injector:86   --> provider: org.matsim.core.modal.ModalProviders$1@4dba773d[Scopes.SINGLETON]
2026-06-19T15:29:29,321  INFO Injector:87   --> source: org.matsim.core.modal.AbstractModalModule.bindModal(AbstractModalModule.java:59)
2026-06-19T15:29:29,321  INFO Injector:89   --> scope: eager singleton
2026-06-19T15:29:29,322  INFO Injector:94   ==full==> ProviderInstanceBinding{key=Key[type=org.matsim.contrib.dvrp.router.DvrpRoutingModule$AccessEgressFacilityFinder, annotation=@org.matsim.contrib.dvrp.run.DvrpMode(value=drt)], source=org.matsim.core.modal.AbstractModalModule.bindModal(AbstractModalModule.java:59), scope=eager singleton, provider=org.matsim.core.modal.ModalProviders$1@4dba773d}
2026-06-19T15:29:29,323  INFO Injector:96 
2026-06-19T15:29:29,323  INFO Injector:85 org.matsim.contrib.drt.routing.DrtRouteUpdater @org.matsim.contrib.dvrp.run.DvrpMode(value=drt)
2026-06-19T15:29:29,323  INFO Injector:86   --> provider: org.matsim.contrib.drt.run.DrtModeRoutingModule$1@1d9bd4da[Scopes.SINGLETON]
2026-06-19T15:29:29,323  INFO Injector:87   --> source: org.matsim.core.modal.AbstractModalModule.bindModal(AbstractModalModule.java:59)
2026-06-19T15:29:29,323  INFO Injector:89   --> scope: eager singleton
2026-06-19T15:29:29,324  INFO Injector:94   ==full==> ProviderInstanceBinding{key=Key[type=org.matsim.contrib.drt.routing.DrtRouteUpdater, annotation=@org.matsim.contrib.dvrp.run.DvrpMode(value=drt)], source=org.matsim.core.modal.AbstractModalModule.bindModal(AbstractModalModule.java:59), scope=eager singleton, provider=org.matsim.contrib.drt.run.DrtModeRoutingModule$1@1d9bd4da}
2026-06-19T15:29:29,324  INFO Injector:96 
2026-06-19T15:29:29,325  INFO Injector:85 org.matsim.core.controler.listener.ControlerListener @com.google.inject.internal.Element(setName=,uniqueId=175, type=MULTIBINDER, keyType=)
2026-06-19T15:29:29,325  INFO Injector:86   --> provider: FactoryProxy{key=Key[type=org.matsim.core.controler.listener.ControlerListener, annotation=@com.google.inject.internal.Element(setName=,uniqueId=175, type=MULTIBINDER, keyType=)], provider=org.matsim.contrib.drt.run.DrtModeRoutingModule$1@1d9bd4da[Scopes.SINGLETON]}
2026-06-19T15:29:29,325  INFO Injector:87   --> source: org.matsim.contrib.drt.run.DrtModeRoutingModule.install(DrtModeRoutingModule.java:115)
2026-06-19T15:29:29,326  INFO Injector:89   --> scope: Scopes.NO_SCOPE
2026-06-19T15:29:29,326  INFO Injector:92   --> target: Key[type=org.matsim.contrib.drt.routing.DrtRouteUpdater, annotation=@org.matsim.contrib.dvrp.run.DvrpMode(value=drt)]
2026-06-19T15:29:29,328  INFO Injector:94   ==full==> LinkedKeyBinding{key=Key[type=org.matsim.core.controler.listener.ControlerListener, annotation=@com.google.inject.internal.Element(setName=,uniqueId=175, type=MULTIBINDER, keyType=)], source=org.matsim.contrib.drt.run.DrtModeRoutingModule.install(DrtModeRoutingModule.java:115), scope=Scopes.NO_SCOPE, target=Key[type=org.matsim.contrib.drt.routing.DrtRouteUpdater, annotation=@org.matsim.contrib.dvrp.run.DvrpMode(value=drt)]}
2026-06-19T15:29:29,328  INFO Injector:96 
2026-06-19T15:29:29,329  INFO Injector:85 org.matsim.contrib.drt.fare.DrtFareHandler @org.matsim.contrib.dvrp.run.DvrpMode(value=drt)
2026-06-19T15:29:29,329  INFO Injector:86   --> provider: ConstantFactory{value=org.matsim.contrib.drt.fare.DrtFareHandler@4c58255}[Scopes.SINGLETON]
2026-06-19T15:29:29,330  INFO Injector:87   --> source: org.matsim.core.modal.AbstractModalModule.bindModal(AbstractModalModule.java:59)
2026-06-19T15:29:29,330  INFO Injector:89   --> scope: eager singleton
2026-06-19T15:29:29,330  INFO Injector:94   ==full==> InstanceBinding{key=Key[type=org.matsim.contrib.drt.fare.DrtFareHandler, annotation=@org.matsim.contrib.dvrp.run.DvrpMode(value=drt)], source=org.matsim.core.modal.AbstractModalModule.bindModal(AbstractModalModule.java:59), instance=org.matsim.contrib.drt.fare.DrtFareHandler@4c58255}
2026-06-19T15:29:29,331  INFO Injector:96 
2026-06-19T15:29:29,331  INFO Injector:85 org.matsim.core.events.handler.EventHandler @com.google.inject.internal.Element(setName=,uniqueId=176, type=MULTIBINDER, keyType=)
2026-06-19T15:29:29,331  INFO Injector:86   --> provider: FactoryProxy{key=Key[type=org.matsim.core.events.handler.EventHandler, annotation=@com.google.inject.internal.Element(setName=,uniqueId=176, type=MULTIBINDER, keyType=)], provider=ConstantFactory{value=org.matsim.contrib.drt.fare.DrtFareHandler@4c58255}[Scopes.SINGLETON]}
2026-06-19T15:29:29,332  INFO Injector:87   --> source: org.matsim.contrib.drt.run.DrtModeModule.install(DrtModeModule.java:74)
2026-06-19T15:29:29,332  INFO Injector:89   --> scope: Scopes.NO_SCOPE
2026-06-19T15:29:29,333  INFO Injector:92   --> target: Key[type=org.matsim.contrib.drt.fare.DrtFareHandler, annotation=@org.matsim.contrib.dvrp.run.DvrpMode(value=drt)]
2026-06-19T15:29:29,333  INFO Injector:94   ==full==> LinkedKeyBinding{key=Key[type=org.matsim.core.events.handler.EventHandler, annotation=@com.google.inject.internal.Element(setName=,uniqueId=176, type=MULTIBINDER, keyType=)], source=org.matsim.contrib.drt.run.DrtModeModule.install(DrtModeModule.java:74), scope=Scopes.NO_SCOPE, target=Key[type=org.matsim.contrib.drt.fare.DrtFareHandler, annotation=@org.matsim.contrib.dvrp.run.DvrpMode(value=drt)]}
2026-06-19T15:29:29,334  INFO Injector:96 
2026-06-19T15:29:29,334  INFO Injector:85 org.matsim.contrib.drt.schedule.StopDurationEstimator @org.matsim.contrib.dvrp.run.DvrpMode(value=drt)
2026-06-19T15:29:29,334  INFO Injector:86   --> provider: ConstantFactory{value=org.matsim.contrib.drt.run.DrtModeModule$$Lambda/0x0000000014362640@6ef60295}[Scopes.SINGLETON]
2026-06-19T15:29:29,335  INFO Injector:87   --> source: org.matsim.core.modal.AbstractModalModule.bindModal(AbstractModalModule.java:59)
2026-06-19T15:29:29,335  INFO Injector:89   --> scope: eager singleton
2026-06-19T15:29:29,335  INFO Injector:94   ==full==> InstanceBinding{key=Key[type=org.matsim.contrib.drt.schedule.StopDurationEstimator, annotation=@org.matsim.contrib.dvrp.run.DvrpMode(value=drt)], source=org.matsim.core.modal.AbstractModalModule.bindModal(AbstractModalModule.java:59), instance=org.matsim.contrib.drt.run.DrtModeModule$$Lambda/0x0000000014362640@6ef60295}
2026-06-19T15:29:29,335  INFO Injector:96 
2026-06-19T15:29:29,335  INFO Injector:85 org.matsim.contrib.drt.optimizer.insertion.IncrementalStopDurationEstimator @org.matsim.contrib.dvrp.run.DvrpMode(value=drt)
2026-06-19T15:29:29,335  INFO Injector:86   --> provider: ConstantFactory{value=org.matsim.contrib.drt.optimizer.insertion.DefaultIncrementalStopDurationEstimator@3127cb44}[Scopes.SINGLETON]
2026-06-19T15:29:29,337  INFO Injector:87   --> source: org.matsim.core.modal.AbstractModalModule.bindModal(AbstractModalModule.java:59)
2026-06-19T15:29:29,337  INFO Injector:89   --> scope: eager singleton
[...]
2026-06-19T15:29:41,893  INFO EventsManagerImpl:115  event # 65536
2026-06-19T15:29:43,202  INFO AbstractQNetsimEngine:366 SIMULATION (QNetsimEngine) AT 07:00:00 : #links=105 #nodes=23
2026-06-19T15:29:43,235  INFO QSim:566 SIMULATION (NEW QSim) AT 07:00:00 : #Veh=4772 lost=1 simT=25200.0s realT=10s; (s/r): 2520.0
2026-06-19T15:29:47,396  INFO AbstractQNetsimEngine:366 SIMULATION (QNetsimEngine) AT 08:00:00 : #links=117 #nodes=20
2026-06-19T15:29:47,398  INFO QSim:566 SIMULATION (NEW QSim) AT 08:00:00 : #Veh=4772 lost=1 simT=28800.0s realT=14s; (s/r): 2057.1428571428573
2026-06-19T15:29:48,215  INFO EventsManagerImpl:115  event # 262144
2026-06-19T15:29:50,172  INFO AbstractQNetsimEngine:366 SIMULATION (QNetsimEngine) AT 09:00:00 : #links=54 #nodes=11
2026-06-19T15:29:50,203  INFO QSim:566 SIMULATION (NEW QSim) AT 09:00:00 : #Veh=4772 lost=1 simT=32400.0s realT=17s; (s/r): 1905.8823529411766
2026-06-19T15:29:51,334  INFO AbstractQNetsimEngine:366 SIMULATION (QNetsimEngine) AT 10:00:00 : #links=25 #nodes=7
2026-06-19T15:29:51,365  INFO QSim:566 SIMULATION (NEW QSim) AT 10:00:00 : #Veh=4766 lost=1 simT=36000.0s realT=18s; (s/r): 2000.0
2026-06-19T15:29:52,505  INFO AbstractQNetsimEngine:366 SIMULATION (QNetsimEngine) AT 11:00:00 : #links=29 #nodes=4
2026-06-19T15:29:52,536  INFO QSim:566 SIMULATION (NEW QSim) AT 11:00:00 : #Veh=4703 lost=1 simT=39600.0s realT=19s; (s/r): 2084.2105263157896
2026-06-19T15:29:53,784  INFO AbstractQNetsimEngine:366 SIMULATION (QNetsimEngine) AT 12:00:00 : #links=28 #nodes=4
2026-06-19T15:29:53,815  INFO QSim:566 SIMULATION (NEW QSim) AT 12:00:00 : #Veh=4569 lost=1 simT=43200.0s realT=21s; (s/r): 2057.1428571428573
2026-06-19T15:29:54,956  INFO AbstractQNetsimEngine:366 SIMULATION (QNetsimEngine) AT 13:00:00 : #links=11 #nodes=1
2026-06-19T15:29:54,987  INFO QSim:566 SIMULATION (NEW QSim) AT 13:00:00 : #Veh=4409 lost=1 simT=46800.0s realT=22s; (s/r): 2127.2727272727275
2026-06-19T15:29:55,869  INFO AbstractQNetsimEngine:366 SIMULATION (QNetsimEngine) AT 14:00:00 : #links=21 #nodes=2
2026-06-19T15:29:55,900  INFO QSim:566 SIMULATION (NEW QSim) AT 14:00:00 : #Veh=4183 lost=1 simT=50400.0s realT=23s; (s/r): 2191.304347826087
2026-06-19T15:29:57,949  INFO AbstractQNetsimEngine:366 SIMULATION (QNetsimEngine) AT 15:00:00 : #links=66 #nodes=13
2026-06-19T15:29:57,980  INFO QSim:566 SIMULATION (NEW QSim) AT 15:00:00 : #Veh=3819 lost=1 simT=54000.0s realT=25s; (s/r): 2160.0
2026-06-19T15:30:02,311  INFO AbstractQNetsimEngine:366 SIMULATION (QNetsimEngine) AT 16:00:00 : #links=100 #nodes=18
2026-06-19T15:30:02,341  INFO QSim:566 SIMULATION (NEW QSim) AT 16:00:00 : #Veh=2836 lost=1 simT=57600.0s realT=29s; (s/r): 1986.2068965517242
2026-06-19T15:30:05,714  INFO AbstractQNetsimEngine:366 SIMULATION (QNetsimEngine) AT 17:00:00 : #links=78 #nodes=14
2026-06-19T15:30:05,745  INFO QSim:566 SIMULATION (NEW QSim) AT 17:00:00 : #Veh=1711 lost=1 simT=61200.0s realT=33s; (s/r): 1854.5454545454545
2026-06-19T15:30:07,505  INFO AbstractQNetsimEngine:366 SIMULATION (QNetsimEngine) AT 18:00:00 : #links=35 #nodes=5
2026-06-19T15:30:07,536  INFO QSim:566 SIMULATION (NEW QSim) AT 18:00:00 : #Veh=982 lost=1 simT=64800.0s realT=34s; (s/r): 1905.8823529411766
2026-06-19T15:30:08,577  INFO AbstractQNetsimEngine:366 SIMULATION (QNetsimEngine) AT 19:00:00 : #links=21 #nodes=7
2026-06-19T15:30:08,610  INFO QSim:566 SIMULATION (NEW QSim) AT 19:00:00 : #Veh=654 lost=1 simT=68400.0s realT=35s; (s/r): 1954.2857142857142
2026-06-19T15:30:09,214  INFO AbstractQNetsimEngine:366 SIMULATION (QNetsimEngine) AT 20:00:00 : #links=10 #nodes=3
2026-06-19T15:30:09,216  INFO QSim:566 SIMULATION (NEW QSim) AT 20:00:00 : #Veh=447 lost=1 simT=72000.0s realT=36s; (s/r): 2000.0
2026-06-19T15:30:09,723  INFO AbstractQNetsimEngine:366 SIMULATION (QNetsimEngine) AT 21:00:00 : #links=10 #nodes=0
2026-06-19T15:30:09,732  INFO QSim:566 SIMULATION (NEW QSim) AT 21:00:00 : #Veh=338 lost=1 simT=75600.0s realT=37s; (s/r): 2043.2432432432433
2026-06-19T15:30:10,174  INFO AbstractQNetsimEngine:366 SIMULATION (QNetsimEngine) AT 22:00:00 : #links=3 #nodes=0
2026-06-19T15:30:10,211  INFO QSim:566 SIMULATION (NEW QSim) AT 22:00:00 : #Veh=265 lost=1 simT=79200.0s realT=37s; (s/r): 2140.5405405405404
2026-06-19T15:30:10,678  INFO AbstractQNetsimEngine:366 SIMULATION (QNetsimEngine) AT 23:00:00 : #links=0 #nodes=0
2026-06-19T15:30:10,681  INFO QSim:566 SIMULATION (NEW QSim) AT 23:00:00 : #Veh=250 lost=1 simT=82800.0s realT=37s; (s/r): 2237.837837837838
2026-06-19T15:30:10,932  INFO AbstractQNetsimEngine:366 SIMULATION (QNetsimEngine) AT 24:00:00 : #links=0 #nodes=0
2026-06-19T15:30:10,937  INFO QSim:566 SIMULATION (NEW QSim) AT 24:00:00 : #Veh=0 lost=1 simT=86400.0s realT=38s; (s/r): 2273.684210526316
2026-06-19T15:30:11,034  INFO AbstractController$9:235 ### ITERATION 0 fires after mobsim event
2026-06-19T15:30:11,035  INFO Gbl:192 Thread performance: Thread=class org.matsim.core.events.SimStepParallelEventsManagerImpl$ProcessEventsRunnable0  cpu-time=7.421875sec
2026-06-19T15:30:11,066  INFO ControlerListenerManagerImpl:249 calling notifyAfterMobsim on org.matsim.analysis.LegTimesControlerListener
2026-06-19T15:30:11,074  INFO LegTimesControlerListener:51 [0] average trip (probably: leg) duration is: 424 seconds = 00:07:04
2026-06-19T15:30:11,074  INFO ControlerListenerManagerImpl:249 calling notifyAfterMobsim on org.matsim.core.events.MobsimScopeEventHandling
2026-06-19T15:30:11,075  INFO EventsManagerImpl:159 removing Event-Handler: org.matsim.contrib.dvrp.passenger.DefaultPassengerEngine
2026-06-19T15:30:11,076  INFO EventsManagerImpl:159 removing Event-Handler: org.matsim.contrib.dvrp.passenger.DefaultPassengerEngine
2026-06-19T15:30:11,077  INFO ControlerListenerManagerImpl:249 calling notifyAfterMobsim on org.matsim.contrib.dvrp.trafficmonitoring.DvrpOfflineTravelTimeEstimator
2026-06-19T15:30:11,239  INFO ControlerListenerManagerImpl:249 calling notifyAfterMobsim on org.matsim.core.scoring.EventsToActivities$1
2026-06-19T15:30:11,281  INFO ControlerListenerManagerImpl:252 [it.0] all ControlerAfterMobsimListeners called.
2026-06-19T15:30:11,282  INFO AbstractController$4:160 ### ITERATION 0 fires scoring event
2026-06-19T15:30:11,283  INFO ControlerListenerManagerImpl:184 calling notifyScoring on org.matsim.core.scoring.PlansScoringImpl
2026-06-19T15:30:11,294  INFO NewScoreAssignerImpl:58 it: 0 msaStart: null
2026-06-19T15:30:11,300  INFO ControlerListenerManagerImpl:195 [it.0] all ControlerScoringListeners called.
2026-06-19T15:30:11,301  INFO AbstractController$5:168 ### ITERATION 0 fires iteration end event
2026-06-19T15:30:11,302  INFO ControlerListenerManagerImpl:161 calling notifyIterationEnds on org.matsim.core.controler.corelisteners.EventsHandlingImpl
2026-06-19T15:30:11,305  INFO EventsManagerImpl:159 removing Event-Handler: org.matsim.core.events.algorithms.EventWriterXML
2026-06-19T15:30:11,305  INFO EventsManagerImpl:159 removing Event-Handler: org.matsim.core.events.algorithms.EventWriterXML
2026-06-19T15:30:11,306  INFO ControlerListenerManagerImpl:161 calling notifyIterationEnds on org.matsim.core.scoring.PlansScoringImpl
2026-06-19T15:30:11,310  INFO ControlerListenerManagerImpl:168 calling notifyIterationEnds on org.matsim.counts.CountsControlerListener
2026-06-19T15:30:11,311  INFO ControlerListenerManagerImpl:168 calling notifyIterationEnds on org.matsim.analysis.ModeStatsControlerListener
2026-06-19T15:30:11,324  INFO ModeStatsControlerListener:145 Mode shares over all 10014.0 trips found. MainModeIdentifier: class org.matsim.core.router.RoutingModeMainModeIdentifier
2026-06-19T15:30:11,325  INFO ModeStatsControlerListener:152 -- mode share of mode drt = 1.0
2026-06-19T15:30:11,327  INFO ControlerListenerManagerImpl:168 calling notifyIterationEnds on org.matsim.analysis.ScoreStatsControlerListener
2026-06-19T15:30:11,332  INFO ScoreStatsControlerListener:149 -- avg. score of the executed plan of each agent: 89.28932735488027
2026-06-19T15:30:11,333  INFO ScoreStatsControlerListener:150 -- avg. score of the worst plan of each agent: 89.28932735488027
2026-06-19T15:30:11,333  INFO ScoreStatsControlerListener:151 -- avg. of the avg. plan score per agent: 89.28932735488027
2026-06-19T15:30:11,334  INFO ScoreStatsControlerListener:152 -- avg. score of the best plan of each agent: 89.28932735488027
2026-06-19T15:30:11,338  INFO ControlerListenerManagerImpl:168 calling notifyIterationEnds on org.matsim.analysis.IterationTravelStatsControlerListener
2026-06-19T15:30:11,405  INFO TravelDistanceStats:144 -- average leg distance per plan (executed plans only): 2977.5990685768284 meters
2026-06-19T15:30:11,437  INFO TravelDistanceStats:145 average leg distance per Person (executed plans only): 19755.64237208093 meters (statistic on all 30009 legs which have a finite distance)
2026-06-19T15:30:11,438  INFO TravelDistanceStats:146 -- average trip distance per plan (executed plans only): 8924.733586983302 meters
2026-06-19T15:30:11,438  INFO TravelDistanceStats:147 average trip distance per Person (executed plans only): 19755.56769243352 meters (statistic on all 10012 trips which have a finite distance)
2026-06-19T15:30:11,439  INFO TravelDistanceStats:148 (TravelDistanceStats takes an average over all legs where the simulation reports travelled (network) distances
2026-06-19T15:30:11,439  INFO TravelDistanceStats:149 (and teleported legs whose route contains a distance.)
2026-06-19T15:30:13,400  INFO ControlerListenerManagerImpl:168 calling notifyIterationEnds on org.matsim.analysis.LegHistogramListener
2026-06-19T15:30:13,438  INFO LegHistogramListener:73 number of legs:	30010	100%
2026-06-19T15:30:13,441  INFO LegHistogramListener:80 number of drt legs:	9999	33.3188937020993%
2026-06-19T15:30:13,441  INFO LegHistogramListener:80 number of walk legs:	20011	66.6811062979007%
2026-06-19T15:30:13,856  INFO ControlerListenerManagerImpl:168 calling notifyIterationEnds on org.matsim.analysis.LinkStatsControlerListener
2026-06-19T15:30:13,857  INFO ControlerListenerManagerImpl:168 calling notifyIterationEnds on org.matsim.contrib.drt.analysis.DrtAnalysisControlerListener
2026-06-19T15:30:16,992  INFO ControlerListenerManagerImpl:168 calling notifyIterationEnds on org.matsim.contrib.common.timeprofile.ProfileWriter
2026-06-19T15:30:17,440  INFO ControlerListenerManagerImpl:168 calling notifyIterationEnds on org.matsim.contrib.common.timeprofile.ProfileWriter
2026-06-19T15:30:17,828  INFO ControlerListenerManagerImpl:168 calling notifyIterationEnds on org.matsim.contrib.drt.analysis.zonal.DrtZonalWaitTimesAnalyzer
2026-06-19T15:30:17,894  INFO ControlerListenerManagerImpl:168 calling notifyIterationEnds on org.matsim.contrib.drt.analysis.zonal.ZonalIdleVehicleXYVisualiser
2026-06-19T15:30:17,905  INFO ControlerListenerManagerImpl:172 [it.0] all ControlerIterationEndsListeners called.
2026-06-19T15:30:18,050  INFO AbstractController:182 ### ITERATION 0 ENDS
2026-06-19T15:30:18,053  INFO AbstractController:183 ###################################################
2026-06-19T15:30:18,053  INFO MatsimRuntimeModifications:80 S H U T D O W N   ---   start shutdown.
2026-06-19T15:30:18,054  INFO ControlerListenerManagerImpl:122 calling notifyShutdown on org.matsim.core.controler.corelisteners.EventsHandlingImpl
2026-06-19T15:30:18,055  INFO ControlerListenerManagerImpl:122 calling notifyShutdown on org.matsim.core.controler.corelisteners.DumpDataAtEndImpl
2026-06-19T15:30:18,059  INFO Counter:70 [PopulationWriter] dumped person # 1
2026-06-19T15:30:18,060  INFO Counter:70 [PopulationWriter] dumped person # 2
2026-06-19T15:30:18,060  INFO Counter:70 [PopulationWriter] dumped person # 4
2026-06-19T15:30:18,061  INFO Counter:70 [PopulationWriter] dumped person # 8
2026-06-19T15:30:18,062  INFO Counter:70 [PopulationWriter] dumped person # 16
2026-06-19T15:30:18,063  INFO Counter:70 [PopulationWriter] dumped person # 32
2026-06-19T15:30:18,067  INFO Counter:70 [PopulationWriter] dumped person # 64
2026-06-19T15:30:18,076  INFO Counter:70 [PopulationWriter] dumped person # 128
2026-06-19T15:30:18,090  INFO Counter:70 [PopulationWriter] dumped person # 256
2026-06-19T15:30:18,116  INFO Counter:70 [PopulationWriter] dumped person # 512
2026-06-19T15:30:18,183  INFO Counter:70 [PopulationWriter] dumped person # 1024
2026-06-19T15:30:18,295  INFO Counter:70 [PopulationWriter] dumped person # 2048
2026-06-19T15:30:18,527  INFO Counter:70 [PopulationWriter] dumped person # 4096
2026-06-19T15:30:18,603  INFO PopulationWriter:145 Population written to: output/capacity_wait_C2/output_plans.xml.gz
2026-06-19T15:30:18,637  INFO Counter:75 [PopulationWriter] dumped person # 4523
2026-06-19T15:30:18,639  INFO NetworkWriter:70 Writing network to file: output/capacity_wait_C2/output_network.xml.gz...
2026-06-19T15:30:18,787  INFO NetworkWriter:73 done.
2026-06-19T15:30:18,827  INFO Config:551 setting context to [file:/D:/Study/TUB/So2026/ITS/GroupAssignment/ITS-Homework2/Assignment_2/Task3-Cottbus/]
2026-06-19T15:30:18,830  INFO Config:551 setting context to [file:/D:/Study/TUB/So2026/ITS/GroupAssignment/ITS-Homework2/Assignment_2/Task3-Cottbus/]
2026-06-19T15:30:18,832  INFO Config:551 setting context to [file:/D:/Study/TUB/So2026/ITS/GroupAssignment/ITS-Homework2/Assignment_2/Task3-Cottbus/]
2026-06-19T15:30:18,835  INFO Config:551 setting context to [file:/D:/Study/TUB/So2026/ITS/GroupAssignment/ITS-Homework2/Assignment_2/Task3-Cottbus/]
2026-06-19T15:30:18,838  INFO Config:551 setting context to [file:/D:/Study/TUB/So2026/ITS/GroupAssignment/ITS-Homework2/Assignment_2/Task3-Cottbus/]
2026-06-19T15:30:18,841  INFO Config:551 setting context to [file:/D:/Study/TUB/So2026/ITS/GroupAssignment/ITS-Homework2/Assignment_2/Task3-Cottbus/]
2026-06-19T15:30:18,843  INFO Config:551 setting context to [file:/D:/Study/TUB/So2026/ITS/GroupAssignment/ITS-Homework2/Assignment_2/Task3-Cottbus/]
2026-06-19T15:30:18,846  INFO Config:551 setting context to [file:/D:/Study/TUB/So2026/ITS/GroupAssignment/ITS-Homework2/Assignment_2/Task3-Cottbus/]
2026-06-19T15:30:18,847  INFO Config:551 setting context to [file:/D:/Study/TUB/So2026/ITS/GroupAssignment/ITS-Homework2/Assignment_2/Task3-Cottbus/]
2026-06-19T15:30:18,850  INFO Config:551 setting context to [file:/D:/Study/TUB/So2026/ITS/GroupAssignment/ITS-Homework2/Assignment_2/Task3-Cottbus/]
2026-06-19T15:30:18,852  INFO Config:551 setting context to [file:/D:/Study/TUB/So2026/ITS/GroupAssignment/ITS-Homework2/Assignment_2/Task3-Cottbus/]
2026-06-19T15:30:18,854  INFO Config:551 setting context to [file:/D:/Study/TUB/So2026/ITS/GroupAssignment/ITS-Homework2/Assignment_2/Task3-Cottbus/]
2026-06-19T15:30:18,856  INFO Config:551 setting context to [file:/D:/Study/TUB/So2026/ITS/GroupAssignment/ITS-Homework2/Assignment_2/Task3-Cottbus/]
2026-06-19T15:30:18,860  INFO Config:551 setting context to [file:/D:/Study/TUB/So2026/ITS/GroupAssignment/ITS-Homework2/Assignment_2/Task3-Cottbus/]
2026-06-19T15:30:18,862  INFO Config:551 setting context to [file:/D:/Study/TUB/So2026/ITS/GroupAssignment/ITS-Homework2/Assignment_2/Task3-Cottbus/]
2026-06-19T15:30:18,863  INFO Config:551 setting context to [file:/D:/Study/TUB/So2026/ITS/GroupAssignment/ITS-Homework2/Assignment_2/Task3-Cottbus/]
2026-06-19T15:30:18,864  INFO Config:551 setting context to [file:/D:/Study/TUB/So2026/ITS/GroupAssignment/ITS-Homework2/Assignment_2/Task3-Cottbus/]
2026-06-19T15:30:18,866  INFO Config:551 setting context to [file:/D:/Study/TUB/So2026/ITS/GroupAssignment/ITS-Homework2/Assignment_2/Task3-Cottbus/]
2026-06-19T15:30:18,873  INFO Config:551 setting context to [file:/D:/Study/TUB/So2026/ITS/GroupAssignment/ITS-Homework2/Assignment_2/Task3-Cottbus/]
2026-06-19T15:30:18,875  INFO Config:551 setting context to [file:/D:/Study/TUB/So2026/ITS/GroupAssignment/ITS-Homework2/Assignment_2/Task3-Cottbus/]
2026-06-19T15:30:18,877  INFO Config:551 setting context to [file:/D:/Study/TUB/So2026/ITS/GroupAssignment/ITS-Homework2/Assignment_2/Task3-Cottbus/]
2026-06-19T15:30:18,878  INFO Config:551 setting context to [file:/D:/Study/TUB/So2026/ITS/GroupAssignment/ITS-Homework2/Assignment_2/Task3-Cottbus/]
2026-06-19T15:30:18,881  INFO Config:551 setting context to [file:/D:/Study/TUB/So2026/ITS/GroupAssignment/ITS-Homework2/Assignment_2/Task3-Cottbus/]
2026-06-19T15:30:18,883  INFO Config:551 setting context to [file:/D:/Study/TUB/So2026/ITS/GroupAssignment/ITS-Homework2/Assignment_2/Task3-Cottbus/]
2026-06-19T15:30:18,886  INFO Config:551 setting context to [file:/D:/Study/TUB/So2026/ITS/GroupAssignment/ITS-Homework2/Assignment_2/Task3-Cottbus/]
2026-06-19T15:30:18,888  INFO Config:551 setting context to [file:/D:/Study/TUB/So2026/ITS/GroupAssignment/ITS-Homework2/Assignment_2/Task3-Cottbus/]
2026-06-19T15:30:18,889  INFO Config:551 setting context to [file:/D:/Study/TUB/So2026/ITS/GroupAssignment/ITS-Homework2/Assignment_2/Task3-Cottbus/]
2026-06-19T15:30:18,891  INFO Config:551 setting context to [file:/D:/Study/TUB/So2026/ITS/GroupAssignment/ITS-Homework2/Assignment_2/Task3-Cottbus/]
2026-06-19T15:30:18,892  INFO Config:551 setting context to [file:/D:/Study/TUB/So2026/ITS/GroupAssignment/ITS-Homework2/Assignment_2/Task3-Cottbus/]
2026-06-19T15:30:18,894  INFO Config:551 setting context to [file:/D:/Study/TUB/So2026/ITS/GroupAssignment/ITS-Homework2/Assignment_2/Task3-Cottbus/]
2026-06-19T15:30:18,900  INFO MatsimVehicleWriter:55 about to write vehicles to: output/capacity_wait_C2/output_vehicles.xml.gz
2026-06-19T15:30:18,902  INFO VehicleWriterV2:64 about to write vehicles to: output/capacity_wait_C2/output_vehicles.xml.gz
2026-06-19T15:30:18,921  INFO MatsimVehicleWriter:55 about to write vehicles to: output/capacity_wait_C2/output_allVehicles.xml.gz
2026-06-19T15:30:18,922  INFO VehicleWriterV2:64 about to write vehicles to: output/capacity_wait_C2/output_allVehicles.xml.gz
2026-06-19T15:30:18,926  INFO HouseholdsWriterV10:67 about to write  households to: output/capacity_wait_C2/output_households.xml.gz
2026-06-19T15:30:18,928  INFO Counter:75 [HouseholdsWriter] wrote household # 0
2026-06-19T15:30:18,953  INFO ControlerListenerManagerImpl:127 calling notifyShutdown on org.matsim.analysis.ScoreStatsControlerListener
2026-06-19T15:30:18,964  INFO ControlerListenerManagerImpl:127 calling notifyShutdown on org.matsim.analysis.IterationTravelStatsControlerListener
2026-06-19T15:30:18,965  INFO IterationTravelStatsControlerListener:115 Writing all Person and Attributes to personscsv
2026-06-19T15:30:19,016  INFO IterationTravelStatsControlerListener:159 ...done
2026-06-19T15:30:19,019  INFO ControlerListenerManagerImpl:127 calling notifyShutdown on org.matsim.analysis.LinkStatsControlerListener
2026-06-19T15:30:19,245  INFO ControlerListenerManagerImpl:127 calling notifyShutdown on org.matsim.contrib.drt.analysis.DrtAnalysisControlerListener
2026-06-19T15:30:19,329  INFO ControlerListenerManagerImpl:127 calling notifyShutdown on org.matsim.contrib.drt.routing.DefaultDrtRouteUpdater
2026-06-19T15:30:19,361  INFO ControlerListenerManagerImpl:127 calling notifyShutdown on org.matsim.contrib.drt.analysis.zonal.DrtZonalWaitTimesAnalyzer
2026-06-19T15:30:20,143  INFO ShapeFileWriter:51 Writing shapefile to output/capacity_wait_C2/drt_waitStats_drt_zonal.shp
2026-06-19T15:30:20,720  INFO ControlerListenerManagerImpl:127 calling notifyShutdown on org.matsim.contrib.dvrp.fleet.FleetControlerListener
2026-06-19T15:30:20,756  INFO ControlerListenerManagerImpl:130 all ControlerShutdownListeners called.
2026-06-19T15:30:20,756  INFO MatsimRuntimeModifications:103 S H U T D O W N   ---   shutdown completed.
2026-06-19T15:30:20,757  INFO OutputDirectoryLogging:171 closing the logfile, i.e. messages sent to the logger after this message are not written to the logfile.
2026-06-19T15:30:20,758  INFO OutputDirectoryLogging:171 closing the logfile, i.e. messages sent to the logger after this message are not written to the logfile.
