2026-06-19T15:32:17,089  INFO IOUtils:213 Resolved D:\Study\TUB\So2026\ITS\GroupAssignment\ITS-Homework2\Assignment_2\Task3-Cottbus\config_capacity_wait_C5.xml to D:\Study\TUB\So2026\ITS\GroupAssignment\ITS-Homework2\Assignment_2\Task3-Cottbus\config_capacity_wait_C5.xml
2026-06-19T15:32:17,128  INFO Config:551 setting context to [file:/D:/Study/TUB/So2026/ITS/GroupAssignment/ITS-Homework2/Assignment_2/Task3-Cottbus/]
2026-06-19T15:32:17,222  INFO Version:21 HV000001: Hibernate Validator master-SNAPSHOT
2026-06-19T15:32:17,414  INFO MatsimXmlParser:165 starting to parse xml from url file:/D:/Study/TUB/So2026/ITS/GroupAssignment/ITS-Homework2/Assignment_2/Task3-Cottbus/config_capacity_wait_C5.xml ...
2026-06-19T15:32:17,477  INFO ConfigReader:103 using config_v2-reader
2026-06-19T15:32:17,480  INFO MatsimXmlParser:281 Trying to load http://www.matsim.org/files/dtd/config_v2.dtd. In some cases (e.g. network interface up but no connection), this may take a bit.
2026-06-19T15:32:17,762  INFO Config:551 setting context to [file:/D:/Study/TUB/So2026/ITS/GroupAssignment/ITS-Homework2/Assignment_2/Task3-Cottbus/config_capacity_wait_C5.xml]
2026-06-19T15:32:17,810  INFO ScenarioLoaderImpl:135 loading network from file:/D:/Study/TUB/So2026/ITS/GroupAssignment/ITS-Homework2/Assignment_2/Task3-Cottbus/network.xml.gz
2026-06-19T15:32:17,832  INFO MatsimXmlParser:165 starting to parse xml from url file:/D:/Study/TUB/So2026/ITS/GroupAssignment/ITS-Homework2/Assignment_2/Task3-Cottbus/network.xml.gz ...
2026-06-19T15:32:17,839  INFO MatsimNetworkReader:116 using network_v1-reader.
2026-06-19T15:32:17,841  INFO MatsimXmlParser:281 Trying to load http://www.matsim.org/files/dtd/network_v1.dtd. In some cases (e.g. network interface up but no connection), this may take a bit.
2026-06-19T15:32:18,013  INFO NetworkImpl:165  node # 1
2026-06-19T15:32:18,014  INFO NetworkImpl:165  node # 4
2026-06-19T15:32:18,018  INFO NetworkImpl:165  node # 16
2026-06-19T15:32:18,027  INFO NetworkImpl:165  node # 64
2026-06-19T15:32:18,046  INFO NetworkImpl:165  node # 256
2026-06-19T15:32:18,063  INFO NetworkImpl:165  node # 1024
2026-06-19T15:32:18,116  INFO NetworkImpl:165  node # 4096
2026-06-19T15:32:18,130  INFO NetworkImpl:161  link # 1
2026-06-19T15:32:18,133  INFO NetworkImpl:161  link # 4
2026-06-19T15:32:18,137  INFO NetworkImpl:161  link # 16
2026-06-19T15:32:18,144  INFO NetworkImpl:161  link # 64
2026-06-19T15:32:18,161  INFO NetworkImpl:161  link # 256
2026-06-19T15:32:18,199  INFO NetworkImpl:161  link # 1024
2026-06-19T15:32:18,337  INFO NetworkImpl:161  link # 4096
2026-06-19T15:32:18,486  INFO ScenarioLoaderImpl:172 no facilities file set in config, therefore not loading any facilities.  This is not a problem except if you are using facilities
2026-06-19T15:32:18,517  INFO ScenarioLoaderImpl:188 no facility-attributes file set in config, not loading any facility attributes
2026-06-19T15:32:18,519  INFO ScenarioLoaderImpl:196 loading population from file:/D:/Study/TUB/So2026/ITS/GroupAssignment/ITS-Homework2/Assignment_2/Task3-Cottbus/plans.xml
2026-06-19T15:32:18,525  INFO MatsimXmlParser:165 starting to parse xml from url file:/D:/Study/TUB/So2026/ITS/GroupAssignment/ITS-Homework2/Assignment_2/Task3-Cottbus/plans.xml ...
2026-06-19T15:32:18,680  INFO PopulationReader:124 using population_v6-reader.
2026-06-19T15:32:18,712  INFO MatsimXmlParser:281 Trying to load http://www.matsim.org/files/dtd/population_v6.dtd. In some cases (e.g. network interface up but no connection), this may take a bit.
2026-06-19T15:32:18,830  INFO PopulationImpl:107  person # 1
2026-06-19T15:32:18,869  INFO PopulationImpl:107  person # 4
2026-06-19T15:32:18,876  INFO PopulationImpl:107  person # 16
2026-06-19T15:32:18,888  INFO PopulationImpl:107  person # 64
2026-06-19T15:32:18,916  INFO PopulationImpl:107  person # 256
2026-06-19T15:32:18,956  INFO PopulationImpl:107  person # 1024
2026-06-19T15:32:19,110  INFO PopulationImpl:107  person # 4096
2026-06-19T15:32:19,157  INFO PopulationUtils:1078  person # 4523
2026-06-19T15:32:19,158  INFO ScenarioLoaderImpl:244 no person-attributes file set in config, not loading any person attributes
2026-06-19T15:32:19,159  INFO ScenarioLoaderImpl:258 no households file set in config, not loading households
2026-06-19T15:32:19,160  INFO ScenarioLoaderImpl:276 no household-attributes file set in config, not loading any household attributes
2026-06-19T15:32:19,160  INFO ScenarioLoaderImpl:290 no transit schedule file set in config, not loading any transit schedule
2026-06-19T15:32:19,160  INFO ScenarioLoaderImpl:331 no transit vehicles file set in config, not loading any transit vehicles
2026-06-19T15:32:19,185  INFO VspConfigConsistencyCheckerImpl:61 NOT running vsp config consistency check because vsp defaults checking level is set to IGNORE
2026-06-19T15:32:20,740  INFO DvrpGlobalRoutingNetworkProvider:66 DVRP global routing network unfiltered: #nodes=4477 #links:10729
2026-06-19T15:32:20,775  INFO NetworkImpl:165  node # 1
2026-06-19T15:32:20,776  INFO NetworkImpl:165  node # 4
2026-06-19T15:32:20,777  INFO NetworkImpl:165  node # 16
2026-06-19T15:32:20,778  INFO NetworkImpl:165  node # 64
2026-06-19T15:32:20,781  INFO NetworkImpl:165  node # 256
2026-06-19T15:32:20,782  INFO NetworkImpl:165  node # 1024
2026-06-19T15:32:20,785  INFO NetworkImpl:165  node # 4096
2026-06-19T15:32:20,789  INFO NetworkImpl:161  link # 1
2026-06-19T15:32:20,790  INFO NetworkImpl:161  link # 4
2026-06-19T15:32:20,791  INFO NetworkImpl:161  link # 16
2026-06-19T15:32:20,793  INFO NetworkImpl:161  link # 64
2026-06-19T15:32:20,797  INFO NetworkImpl:161  link # 256
2026-06-19T15:32:20,801  INFO NetworkImpl:161  link # 1024
2026-06-19T15:32:20,816  INFO NetworkImpl:161  link # 4096
2026-06-19T15:32:20,847  INFO DvrpGlobalRoutingNetworkProvider:66 DVRP global routing network filtered: #nodes=4415 #links:10599
2026-06-19T15:32:20,854  INFO SimStepParallelEventsManagerImpl:80 number of threads=1
2026-06-19T15:32:20,862  INFO EventsManagerImpl:138 adding Event-Handler: org.matsim.core.trafficmonitoring.TravelTimeCalculator
2026-06-19T15:32:20,864  INFO EventsManagerImpl:144   org.matsim.api.core.v01.events.handler.LinkEnterEventHandler
2026-06-19T15:32:20,866  INFO EventsManagerImpl:205     > org.matsim.api.core.v01.events.LinkEnterEvent
2026-06-19T15:32:20,868  INFO EventsManagerImpl:144   org.matsim.api.core.v01.events.handler.LinkLeaveEventHandler
2026-06-19T15:32:20,868  INFO EventsManagerImpl:205     > org.matsim.api.core.v01.events.LinkLeaveEvent
2026-06-19T15:32:20,869  INFO EventsManagerImpl:144   org.matsim.api.core.v01.events.handler.VehicleEntersTrafficEventHandler
2026-06-19T15:32:20,869  INFO EventsManagerImpl:205     > org.matsim.api.core.v01.events.VehicleEntersTrafficEvent
2026-06-19T15:32:20,870  INFO EventsManagerImpl:144   org.matsim.api.core.v01.events.handler.VehicleLeavesTrafficEventHandler
2026-06-19T15:32:20,871  INFO EventsManagerImpl:205     > org.matsim.api.core.v01.events.VehicleLeavesTrafficEvent
2026-06-19T15:32:20,871  INFO EventsManagerImpl:144   org.matsim.core.api.experimental.events.handler.VehicleArrivesAtFacilityEventHandler
2026-06-19T15:32:20,872  INFO EventsManagerImpl:205     > org.matsim.core.api.experimental.events.VehicleArrivesAtFacilityEvent
2026-06-19T15:32:20,873  INFO EventsManagerImpl:144   org.matsim.api.core.v01.events.handler.VehicleAbortsEventHandler
2026-06-19T15:32:20,874  INFO EventsManagerImpl:205     > org.matsim.api.core.v01.events.VehicleAbortsEvent
2026-06-19T15:32:20,875  INFO EventsManagerImpl:154 
2026-06-19T15:32:20,875  INFO EventsManagerImpl:138 adding Event-Handler: org.matsim.core.trafficmonitoring.TravelTimeCalculator
2026-06-19T15:32:20,876  INFO EventsManagerImpl:144   org.matsim.api.core.v01.events.handler.LinkEnterEventHandler
2026-06-19T15:32:20,876  INFO EventsManagerImpl:205     > org.matsim.api.core.v01.events.LinkEnterEvent
2026-06-19T15:32:20,877  INFO EventsManagerImpl:144   org.matsim.api.core.v01.events.handler.LinkLeaveEventHandler
2026-06-19T15:32:20,877  INFO EventsManagerImpl:205     > org.matsim.api.core.v01.events.LinkLeaveEvent
2026-06-19T15:32:20,878  INFO EventsManagerImpl:144   org.matsim.api.core.v01.events.handler.VehicleEntersTrafficEventHandler
2026-06-19T15:32:20,879  INFO EventsManagerImpl:205     > org.matsim.api.core.v01.events.VehicleEntersTrafficEvent
2026-06-19T15:32:20,881  INFO EventsManagerImpl:144   org.matsim.api.core.v01.events.handler.VehicleLeavesTrafficEventHandler
2026-06-19T15:32:20,881  INFO EventsManagerImpl:205     > org.matsim.api.core.v01.events.VehicleLeavesTrafficEvent
2026-06-19T15:32:20,882  INFO EventsManagerImpl:144   org.matsim.core.api.experimental.events.handler.VehicleArrivesAtFacilityEventHandler
2026-06-19T15:32:20,883  INFO EventsManagerImpl:205     > org.matsim.core.api.experimental.events.VehicleArrivesAtFacilityEvent
2026-06-19T15:32:20,883  INFO EventsManagerImpl:144   org.matsim.api.core.v01.events.handler.VehicleAbortsEventHandler
2026-06-19T15:32:20,884  INFO EventsManagerImpl:205     > org.matsim.api.core.v01.events.VehicleAbortsEvent
2026-06-19T15:32:20,884  INFO EventsManagerImpl:154 
2026-06-19T15:32:20,915  INFO MatsimXmlParser:165 starting to parse xml from url file:/D:/Study/TUB/So2026/ITS/GroupAssignment/ITS-Homework2/Assignment_2/Task3-Cottbus/drt-vehicles/fleet-size-350-capacity-12-Cexp.xml ...
2026-06-19T15:32:20,925  INFO MatsimXmlParser:281 Trying to load http://matsim.org/files/dtd/dvrp_vehicles_v1.dtd. In some cases (e.g. network interface up but no connection), this may take a bit.
2026-06-19T15:32:21,079  INFO DrtGridUtils:50 start creating grid from network
2026-06-19T15:32:21,134  INFO DrtGridUtils:72 finished creating grid from network
2026-06-19T15:32:21,350  INFO SpeedyALTData:51 find dead ends...
2026-06-19T15:32:21,386  INFO SpeedyALTData:132 calculate landmarks...
2026-06-19T15:32:21,461  INFO SpeedyALTData:173 calculate min travelcost...
2026-06-19T15:32:21,521  INFO StrategyManager:77 global innovation switch off after iteration: 0
2026-06-19T15:32:21,526  INFO GenericStrategyManagerImpl:330 added change request:  iteration=1 newWeight=0.0 strategy=RandomPlanSelector_TimeAllocationMutatorModule
2026-06-19T15:32:21,527  INFO GenericStrategyManagerImpl:362 setting PlanSelectorForRemoval to class org.matsim.core.replanning.selectors.WorstPlanForRemovalSelector
2026-06-19T15:32:21,529  INFO EventsManagerImpl:138 adding Event-Handler: org.matsim.core.scoring.ScoringFunctionsForPopulation
2026-06-19T15:32:21,530  INFO EventsManagerImpl:144   org.matsim.core.events.handler.BasicEventHandler
2026-06-19T15:32:21,530  INFO EventsManagerImpl:205     > org.matsim.api.core.v01.events.Event
2026-06-19T15:32:21,531  INFO EventsManagerImpl:154 
2026-06-19T15:32:21,532  INFO EventsManagerImpl:138 adding Event-Handler: org.matsim.core.scoring.ScoringFunctionsForPopulation
2026-06-19T15:32:21,532  INFO EventsManagerImpl:144   org.matsim.core.events.handler.BasicEventHandler
2026-06-19T15:32:21,532  INFO EventsManagerImpl:205     > org.matsim.api.core.v01.events.Event
2026-06-19T15:32:21,533  INFO EventsManagerImpl:154 
2026-06-19T15:32:21,539  INFO CalcLinkStats:151  resetting `count' to zero.  This info is here since we want to check when this is happening during normal simulation runs.  kai, jan'11
2026-06-19T15:32:21,553  INFO EventsManagerImpl:138 adding Event-Handler: org.matsim.analysis.VolumesAnalyzer
2026-06-19T15:32:21,554  INFO EventsManagerImpl:144   org.matsim.api.core.v01.events.handler.LinkLeaveEventHandler
2026-06-19T15:32:21,554  INFO EventsManagerImpl:205     > org.matsim.api.core.v01.events.LinkLeaveEvent
2026-06-19T15:32:21,555  INFO EventsManagerImpl:144   org.matsim.api.core.v01.events.handler.VehicleEntersTrafficEventHandler
2026-06-19T15:32:21,556  INFO EventsManagerImpl:205     > org.matsim.api.core.v01.events.VehicleEntersTrafficEvent
2026-06-19T15:32:21,556  INFO EventsManagerImpl:154 
2026-06-19T15:32:21,557  INFO EventsManagerImpl:138 adding Event-Handler: org.matsim.analysis.VolumesAnalyzer
2026-06-19T15:32:21,557  INFO EventsManagerImpl:144   org.matsim.api.core.v01.events.handler.LinkLeaveEventHandler
2026-06-19T15:32:21,557  INFO EventsManagerImpl:205     > org.matsim.api.core.v01.events.LinkLeaveEvent
2026-06-19T15:32:21,558  INFO EventsManagerImpl:144   org.matsim.api.core.v01.events.handler.VehicleEntersTrafficEventHandler
2026-06-19T15:32:21,558  INFO EventsManagerImpl:205     > org.matsim.api.core.v01.events.VehicleEntersTrafficEvent
2026-06-19T15:32:21,559  INFO EventsManagerImpl:154 
2026-06-19T15:32:21,559  INFO EventsManagerImpl:138 adding Event-Handler: org.matsim.analysis.LegHistogram
2026-06-19T15:32:21,561  INFO EventsManagerImpl:144   org.matsim.api.core.v01.events.handler.PersonDepartureEventHandler
2026-06-19T15:32:21,564  INFO EventsManagerImpl:205     > org.matsim.api.core.v01.events.PersonDepartureEvent
2026-06-19T15:32:21,565  INFO EventsManagerImpl:144   org.matsim.api.core.v01.events.handler.PersonArrivalEventHandler
2026-06-19T15:32:21,566  INFO EventsManagerImpl:205     > org.matsim.api.core.v01.events.PersonArrivalEvent
2026-06-19T15:32:21,567  INFO EventsManagerImpl:144   org.matsim.api.core.v01.events.handler.PersonStuckEventHandler
2026-06-19T15:32:21,567  INFO EventsManagerImpl:205     > org.matsim.api.core.v01.events.PersonStuckEvent
2026-06-19T15:32:21,568  INFO EventsManagerImpl:154 
2026-06-19T15:32:21,568  INFO EventsManagerImpl:138 adding Event-Handler: org.matsim.analysis.LegHistogram
2026-06-19T15:32:21,568  INFO EventsManagerImpl:144   org.matsim.api.core.v01.events.handler.PersonDepartureEventHandler
2026-06-19T15:32:21,569  INFO EventsManagerImpl:205     > org.matsim.api.core.v01.events.PersonDepartureEvent
2026-06-19T15:32:21,569  INFO EventsManagerImpl:144   org.matsim.api.core.v01.events.handler.PersonArrivalEventHandler
2026-06-19T15:32:21,570  INFO EventsManagerImpl:205     > org.matsim.api.core.v01.events.PersonArrivalEvent
2026-06-19T15:32:21,570  INFO EventsManagerImpl:144   org.matsim.api.core.v01.events.handler.PersonStuckEventHandler
2026-06-19T15:32:21,570  INFO EventsManagerImpl:205     > org.matsim.api.core.v01.events.PersonStuckEvent
2026-06-19T15:32:21,571  INFO EventsManagerImpl:154 
2026-06-19T15:32:21,573  INFO EventsManagerImpl:138 adding Event-Handler: org.matsim.analysis.CalcLegTimes
2026-06-19T15:32:21,573  INFO EventsManagerImpl:144   org.matsim.api.core.v01.events.handler.PersonDepartureEventHandler
2026-06-19T15:32:21,574  INFO EventsManagerImpl:205     > org.matsim.api.core.v01.events.PersonDepartureEvent
2026-06-19T15:32:21,574  INFO EventsManagerImpl:144   org.matsim.api.core.v01.events.handler.PersonArrivalEventHandler
2026-06-19T15:32:21,574  INFO EventsManagerImpl:205     > org.matsim.api.core.v01.events.PersonArrivalEvent
2026-06-19T15:32:21,575  INFO EventsManagerImpl:144   org.matsim.api.core.v01.events.handler.ActivityEndEventHandler
2026-06-19T15:32:21,575  INFO EventsManagerImpl:205     > org.matsim.api.core.v01.events.ActivityEndEvent
2026-06-19T15:32:21,576  INFO EventsManagerImpl:144   org.matsim.api.core.v01.events.handler.ActivityStartEventHandler
2026-06-19T15:32:21,576  INFO EventsManagerImpl:205     > org.matsim.api.core.v01.events.ActivityStartEvent
2026-06-19T15:32:21,576  INFO EventsManagerImpl:154 
2026-06-19T15:32:21,577  INFO EventsManagerImpl:138 adding Event-Handler: org.matsim.analysis.CalcLegTimes
2026-06-19T15:32:21,577  INFO EventsManagerImpl:144   org.matsim.api.core.v01.events.handler.PersonDepartureEventHandler
2026-06-19T15:32:21,577  INFO EventsManagerImpl:205     > org.matsim.api.core.v01.events.PersonDepartureEvent
2026-06-19T15:32:21,578  INFO EventsManagerImpl:144   org.matsim.api.core.v01.events.handler.PersonArrivalEventHandler
2026-06-19T15:32:21,579  INFO EventsManagerImpl:205     > org.matsim.api.core.v01.events.PersonArrivalEvent
2026-06-19T15:32:21,579  INFO EventsManagerImpl:144   org.matsim.api.core.v01.events.handler.ActivityEndEventHandler
2026-06-19T15:32:21,580  INFO EventsManagerImpl:205     > org.matsim.api.core.v01.events.ActivityEndEvent
2026-06-19T15:32:21,580  INFO EventsManagerImpl:144   org.matsim.api.core.v01.events.handler.ActivityStartEventHandler
2026-06-19T15:32:21,581  INFO EventsManagerImpl:205     > org.matsim.api.core.v01.events.ActivityStartEvent
2026-06-19T15:32:21,581  INFO EventsManagerImpl:154 
2026-06-19T15:32:21,588  INFO AbstractController:55 Used Controler-Class: org.matsim.core.controler.NewControler
2026-06-19T15:32:21,589  INFO Config:511 ConfigConsistencyChecker with runtime type=class org.matsim.core.config.consistency.ConfigConsistencyCheckerImpl was already added; not adding it a second time
2026-06-19T15:32:21,591  INFO EventsManagerImpl:138 adding Event-Handler: org.matsim.contrib.drt.analysis.zonal.ZonalIdleVehicleXYVisualiser
2026-06-19T15:32:21,591  INFO EventsManagerImpl:144   org.matsim.contrib.dvrp.vrpagent.TaskStartedEventHandler
2026-06-19T15:32:21,592  INFO EventsManagerImpl:205     > org.matsim.contrib.dvrp.vrpagent.TaskStartedEvent
2026-06-19T15:32:21,592  INFO EventsManagerImpl:144   org.matsim.contrib.dvrp.vrpagent.TaskEndedEventHandler
2026-06-19T15:32:21,593  INFO EventsManagerImpl:205     > org.matsim.contrib.dvrp.vrpagent.TaskEndedEvent
2026-06-19T15:32:21,594  INFO EventsManagerImpl:154 
2026-06-19T15:32:21,594  INFO EventsManagerImpl:138 adding Event-Handler: org.matsim.contrib.drt.analysis.zonal.ZonalIdleVehicleXYVisualiser
2026-06-19T15:32:21,595  INFO EventsManagerImpl:144   org.matsim.contrib.dvrp.vrpagent.TaskStartedEventHandler
2026-06-19T15:32:21,595  INFO EventsManagerImpl:205     > org.matsim.contrib.dvrp.vrpagent.TaskStartedEvent
2026-06-19T15:32:21,596  INFO EventsManagerImpl:144   org.matsim.contrib.dvrp.vrpagent.TaskEndedEventHandler
2026-06-19T15:32:21,596  INFO EventsManagerImpl:205     > org.matsim.contrib.dvrp.vrpagent.TaskEndedEvent
2026-06-19T15:32:21,597  INFO EventsManagerImpl:154 
2026-06-19T15:32:21,597  INFO EventsManagerImpl:138 adding Event-Handler: org.matsim.contrib.drt.optimizer.rebalancing.demandestimator.PreviousIterationDRTDemandEstimator
2026-06-19T15:32:21,597  INFO EventsManagerImpl:144   org.matsim.api.core.v01.events.handler.PersonDepartureEventHandler
2026-06-19T15:32:21,598  INFO EventsManagerImpl:205     > org.matsim.api.core.v01.events.PersonDepartureEvent
2026-06-19T15:32:21,598  INFO EventsManagerImpl:154 
2026-06-19T15:32:21,599  INFO EventsManagerImpl:138 adding Event-Handler: org.matsim.contrib.drt.optimizer.rebalancing.demandestimator.PreviousIterationDRTDemandEstimator
2026-06-19T15:32:21,599  INFO EventsManagerImpl:144   org.matsim.api.core.v01.events.handler.PersonDepartureEventHandler
2026-06-19T15:32:21,600  INFO EventsManagerImpl:205     > org.matsim.api.core.v01.events.PersonDepartureEvent
2026-06-19T15:32:21,600  INFO EventsManagerImpl:154 
2026-06-19T15:32:21,600  INFO EventsManagerImpl:138 adding Event-Handler: org.matsim.contrib.drt.fare.DrtFareHandler
2026-06-19T15:32:21,601  INFO EventsManagerImpl:144   org.matsim.contrib.drt.passenger.events.DrtRequestSubmittedEventHandler
2026-06-19T15:32:21,602  INFO EventsManagerImpl:205     > org.matsim.contrib.drt.passenger.events.DrtRequestSubmittedEvent
2026-06-19T15:32:21,603  INFO EventsManagerImpl:144   org.matsim.contrib.dvrp.passenger.PassengerDroppedOffEventHandler
2026-06-19T15:32:21,603  INFO EventsManagerImpl:205     > org.matsim.contrib.dvrp.passenger.PassengerDroppedOffEvent
2026-06-19T15:32:21,604  INFO EventsManagerImpl:154 
2026-06-19T15:32:21,604  INFO EventsManagerImpl:138 adding Event-Handler: org.matsim.contrib.drt.fare.DrtFareHandler
2026-06-19T15:32:21,605  INFO EventsManagerImpl:144   org.matsim.contrib.drt.passenger.events.DrtRequestSubmittedEventHandler
2026-06-19T15:32:21,605  INFO EventsManagerImpl:205     > org.matsim.contrib.drt.passenger.events.DrtRequestSubmittedEvent
2026-06-19T15:32:21,606  INFO EventsManagerImpl:144   org.matsim.contrib.dvrp.passenger.PassengerDroppedOffEventHandler
2026-06-19T15:32:21,607  INFO EventsManagerImpl:205     > org.matsim.contrib.dvrp.passenger.PassengerDroppedOffEvent
2026-06-19T15:32:21,607  INFO EventsManagerImpl:154 
2026-06-19T15:32:21,608  INFO EventsManagerImpl:138 adding Event-Handler: org.matsim.contrib.dvrp.analysis.ExecutedScheduleCollector
2026-06-19T15:32:21,610  INFO EventsManagerImpl:144   org.matsim.contrib.dvrp.vrpagent.TaskStartedEventHandler
2026-06-19T15:32:21,611  INFO EventsManagerImpl:205     > org.matsim.contrib.dvrp.vrpagent.TaskStartedEvent
2026-06-19T15:32:21,612  INFO EventsManagerImpl:144   org.matsim.contrib.dvrp.vrpagent.TaskEndedEventHandler
2026-06-19T15:32:21,612  INFO EventsManagerImpl:205     > org.matsim.contrib.dvrp.vrpagent.TaskEndedEvent
2026-06-19T15:32:21,613  INFO EventsManagerImpl:154 
2026-06-19T15:32:21,613  INFO EventsManagerImpl:138 adding Event-Handler: org.matsim.contrib.dvrp.analysis.ExecutedScheduleCollector
2026-06-19T15:32:21,614  INFO EventsManagerImpl:144   org.matsim.contrib.dvrp.vrpagent.TaskStartedEventHandler
2026-06-19T15:32:21,614  INFO EventsManagerImpl:205     > org.matsim.contrib.dvrp.vrpagent.TaskStartedEvent
2026-06-19T15:32:21,615  INFO EventsManagerImpl:144   org.matsim.contrib.dvrp.vrpagent.TaskEndedEventHandler
2026-06-19T15:32:21,615  INFO EventsManagerImpl:205     > org.matsim.contrib.dvrp.vrpagent.TaskEndedEvent
2026-06-19T15:32:21,615  INFO EventsManagerImpl:154 
2026-06-19T15:32:21,616  INFO EventsManagerImpl:138 adding Event-Handler: org.matsim.contrib.drt.analysis.DrtVehicleDistanceStats
2026-06-19T15:32:21,617  INFO EventsManagerImpl:144   org.matsim.contrib.dvrp.passenger.PassengerPickedUpEventHandler
2026-06-19T15:32:21,618  INFO EventsManagerImpl:205     > org.matsim.contrib.dvrp.passenger.PassengerPickedUpEvent
2026-06-19T15:32:21,619  INFO EventsManagerImpl:144   org.matsim.api.core.v01.events.handler.LinkEnterEventHandler
2026-06-19T15:32:21,619  INFO EventsManagerImpl:205     > org.matsim.api.core.v01.events.LinkEnterEvent
2026-06-19T15:32:21,620  INFO EventsManagerImpl:144   org.matsim.contrib.dvrp.passenger.PassengerDroppedOffEventHandler
2026-06-19T15:32:21,621  INFO EventsManagerImpl:205     > org.matsim.contrib.dvrp.passenger.PassengerDroppedOffEvent
2026-06-19T15:32:21,621  INFO EventsManagerImpl:144   org.matsim.core.api.experimental.events.handler.TeleportationArrivalEventHandler
2026-06-19T15:32:21,621  INFO EventsManagerImpl:205     > org.matsim.core.api.experimental.events.TeleportationArrivalEvent
2026-06-19T15:32:21,622  INFO EventsManagerImpl:154 
2026-06-19T15:32:21,623  INFO EventsManagerImpl:138 adding Event-Handler: org.matsim.contrib.drt.analysis.DrtVehicleDistanceStats
2026-06-19T15:32:21,624  INFO EventsManagerImpl:144   org.matsim.contrib.dvrp.passenger.PassengerPickedUpEventHandler
2026-06-19T15:32:21,624  INFO EventsManagerImpl:205     > org.matsim.contrib.dvrp.passenger.PassengerPickedUpEvent
2026-06-19T15:32:21,625  INFO EventsManagerImpl:144   org.matsim.api.core.v01.events.handler.LinkEnterEventHandler
2026-06-19T15:32:21,626  INFO EventsManagerImpl:205     > org.matsim.api.core.v01.events.LinkEnterEvent
2026-06-19T15:32:21,626  INFO EventsManagerImpl:144   org.matsim.contrib.dvrp.passenger.PassengerDroppedOffEventHandler
2026-06-19T15:32:21,627  INFO EventsManagerImpl:205     > org.matsim.contrib.dvrp.passenger.PassengerDroppedOffEvent
2026-06-19T15:32:21,628  INFO EventsManagerImpl:144   org.matsim.core.api.experimental.events.handler.TeleportationArrivalEventHandler
2026-06-19T15:32:21,628  INFO EventsManagerImpl:205     > org.matsim.core.api.experimental.events.TeleportationArrivalEvent
2026-06-19T15:32:21,629  INFO EventsManagerImpl:154 
2026-06-19T15:32:21,630  INFO EventsManagerImpl:138 adding Event-Handler: org.matsim.contrib.drt.analysis.DrtEventSequenceCollector
2026-06-19T15:32:21,630  INFO EventsManagerImpl:144   org.matsim.contrib.dvrp.passenger.PassengerRequestRejectedEventHandler
2026-06-19T15:32:21,632  INFO EventsManagerImpl:205     > org.matsim.contrib.dvrp.passenger.PassengerRequestRejectedEvent
2026-06-19T15:32:21,633  INFO EventsManagerImpl:144   org.matsim.contrib.dvrp.passenger.PassengerRequestScheduledEventHandler
2026-06-19T15:32:21,635  INFO EventsManagerImpl:205     > org.matsim.contrib.dvrp.passenger.PassengerRequestScheduledEvent
2026-06-19T15:32:21,636  INFO EventsManagerImpl:144   org.matsim.contrib.drt.passenger.events.DrtRequestSubmittedEventHandler
2026-06-19T15:32:21,637  INFO EventsManagerImpl:205     > org.matsim.contrib.drt.passenger.events.DrtRequestSubmittedEvent
2026-06-19T15:32:21,637  INFO EventsManagerImpl:144   org.matsim.contrib.dvrp.passenger.PassengerPickedUpEventHandler
2026-06-19T15:32:21,638  INFO EventsManagerImpl:205     > org.matsim.contrib.dvrp.passenger.PassengerPickedUpEvent
2026-06-19T15:32:21,638  INFO EventsManagerImpl:144   org.matsim.contrib.dvrp.passenger.PassengerDroppedOffEventHandler
2026-06-19T15:32:21,639  INFO EventsManagerImpl:205     > org.matsim.contrib.dvrp.passenger.PassengerDroppedOffEvent
2026-06-19T15:32:21,640  INFO EventsManagerImpl:144   org.matsim.api.core.v01.events.handler.PersonMoneyEventHandler
2026-06-19T15:32:21,640  INFO EventsManagerImpl:205     > org.matsim.api.core.v01.events.PersonMoneyEvent
2026-06-19T15:32:21,641  INFO EventsManagerImpl:144   org.matsim.api.core.v01.events.handler.PersonDepartureEventHandler
2026-06-19T15:32:21,642  INFO EventsManagerImpl:205     > org.matsim.api.core.v01.events.PersonDepartureEvent
2026-06-19T15:32:21,642  INFO EventsManagerImpl:154 
2026-06-19T15:32:21,643  INFO EventsManagerImpl:138 adding Event-Handler: org.matsim.contrib.drt.analysis.DrtEventSequenceCollector
2026-06-19T15:32:21,643  INFO EventsManagerImpl:144   org.matsim.contrib.dvrp.passenger.PassengerRequestRejectedEventHandler
2026-06-19T15:32:21,643  INFO EventsManagerImpl:205     > org.matsim.contrib.dvrp.passenger.PassengerRequestRejectedEvent
2026-06-19T15:32:21,645  INFO EventsManagerImpl:144   org.matsim.contrib.dvrp.passenger.PassengerRequestScheduledEventHandler
2026-06-19T15:32:21,645  INFO EventsManagerImpl:205     > org.matsim.contrib.dvrp.passenger.PassengerRequestScheduledEvent
2026-06-19T15:32:21,645  INFO EventsManagerImpl:144   org.matsim.contrib.drt.passenger.events.DrtRequestSubmittedEventHandler
2026-06-19T15:32:21,646  INFO EventsManagerImpl:205     > org.matsim.contrib.drt.passenger.events.DrtRequestSubmittedEvent
2026-06-19T15:32:21,646  INFO EventsManagerImpl:144   org.matsim.contrib.dvrp.passenger.PassengerPickedUpEventHandler
2026-06-19T15:32:21,646  INFO EventsManagerImpl:205     > org.matsim.contrib.dvrp.passenger.PassengerPickedUpEvent
2026-06-19T15:32:21,647  INFO EventsManagerImpl:144   org.matsim.contrib.dvrp.passenger.PassengerDroppedOffEventHandler
2026-06-19T15:32:21,648  INFO EventsManagerImpl:205     > org.matsim.contrib.dvrp.passenger.PassengerDroppedOffEvent
2026-06-19T15:32:21,651  INFO EventsManagerImpl:144   org.matsim.api.core.v01.events.handler.PersonMoneyEventHandler
2026-06-19T15:32:21,654  INFO EventsManagerImpl:205     > org.matsim.api.core.v01.events.PersonMoneyEvent
2026-06-19T15:32:21,655  INFO EventsManagerImpl:144   org.matsim.api.core.v01.events.handler.PersonDepartureEventHandler
2026-06-19T15:32:21,655  INFO EventsManagerImpl:205     > org.matsim.api.core.v01.events.PersonDepartureEvent
2026-06-19T15:32:21,656  INFO EventsManagerImpl:154 
2026-06-19T15:32:21,656  INFO EventsManagerImpl:138 adding Event-Handler: org.matsim.contrib.dvrp.analysis.VehicleOccupancyProfileCalculator
2026-06-19T15:32:21,657  INFO EventsManagerImpl:144   org.matsim.api.core.v01.events.handler.PersonEntersVehicleEventHandler
2026-06-19T15:32:21,657  INFO EventsManagerImpl:205     > org.matsim.api.core.v01.events.PersonEntersVehicleEvent
2026-06-19T15:32:21,658  INFO EventsManagerImpl:144   org.matsim.api.core.v01.events.handler.PersonLeavesVehicleEventHandler
2026-06-19T15:32:21,658  INFO EventsManagerImpl:205     > org.matsim.api.core.v01.events.PersonLeavesVehicleEvent
2026-06-19T15:32:21,659  INFO EventsManagerImpl:144   org.matsim.contrib.dvrp.vrpagent.TaskStartedEventHandler
2026-06-19T15:32:21,659  INFO EventsManagerImpl:205     > org.matsim.contrib.dvrp.vrpagent.TaskStartedEvent
2026-06-19T15:32:21,659  INFO EventsManagerImpl:144   org.matsim.contrib.dvrp.vrpagent.TaskEndedEventHandler
2026-06-19T15:32:21,659  INFO EventsManagerImpl:205     > org.matsim.contrib.dvrp.vrpagent.TaskEndedEvent
2026-06-19T15:32:21,659  INFO EventsManagerImpl:154 
2026-06-19T15:32:21,661  INFO EventsManagerImpl:138 adding Event-Handler: org.matsim.contrib.dvrp.analysis.VehicleOccupancyProfileCalculator
2026-06-19T15:32:21,661  INFO EventsManagerImpl:144   org.matsim.api.core.v01.events.handler.PersonEntersVehicleEventHandler
2026-06-19T15:32:21,661  INFO EventsManagerImpl:205     > org.matsim.api.core.v01.events.PersonEntersVehicleEvent
2026-06-19T15:32:21,662  INFO EventsManagerImpl:144   org.matsim.api.core.v01.events.handler.PersonLeavesVehicleEventHandler
2026-06-19T15:32:21,662  INFO EventsManagerImpl:205     > org.matsim.api.core.v01.events.PersonLeavesVehicleEvent
2026-06-19T15:32:21,662  INFO EventsManagerImpl:144   org.matsim.contrib.dvrp.vrpagent.TaskStartedEventHandler
2026-06-19T15:32:21,663  INFO EventsManagerImpl:205     > org.matsim.contrib.dvrp.vrpagent.TaskStartedEvent
2026-06-19T15:32:21,663  INFO EventsManagerImpl:144   org.matsim.contrib.dvrp.vrpagent.TaskEndedEventHandler
2026-06-19T15:32:21,663  INFO EventsManagerImpl:205     > org.matsim.contrib.dvrp.vrpagent.TaskEndedEvent
2026-06-19T15:32:21,664  INFO EventsManagerImpl:154 
2026-06-19T15:32:21,664  INFO EventsManagerImpl:138 adding Event-Handler: org.matsim.contrib.dvrp.analysis.VehicleTaskProfileCalculator
2026-06-19T15:32:21,664  INFO EventsManagerImpl:144   org.matsim.contrib.dvrp.vrpagent.TaskStartedEventHandler
2026-06-19T15:32:21,666  INFO EventsManagerImpl:205     > org.matsim.contrib.dvrp.vrpagent.TaskStartedEvent
2026-06-19T15:32:21,666  INFO EventsManagerImpl:144   org.matsim.contrib.dvrp.vrpagent.TaskEndedEventHandler
2026-06-19T15:32:21,666  INFO EventsManagerImpl:205     > org.matsim.contrib.dvrp.vrpagent.TaskEndedEvent
2026-06-19T15:32:21,667  INFO EventsManagerImpl:154 
2026-06-19T15:32:21,667  INFO EventsManagerImpl:138 adding Event-Handler: org.matsim.contrib.dvrp.analysis.VehicleTaskProfileCalculator
2026-06-19T15:32:21,667  INFO EventsManagerImpl:144   org.matsim.contrib.dvrp.vrpagent.TaskStartedEventHandler
2026-06-19T15:32:21,668  INFO EventsManagerImpl:205     > org.matsim.contrib.dvrp.vrpagent.TaskStartedEvent
2026-06-19T15:32:21,668  INFO EventsManagerImpl:144   org.matsim.contrib.dvrp.vrpagent.TaskEndedEventHandler
2026-06-19T15:32:21,669  INFO EventsManagerImpl:205     > org.matsim.contrib.dvrp.vrpagent.TaskEndedEvent
2026-06-19T15:32:21,669  INFO EventsManagerImpl:154 
2026-06-19T15:32:21,670  INFO Injector:81 === printInjector start ===
2026-06-19T15:32:21,671  INFO Injector:85 org.matsim.core.mobsim.qsim.components.QSimComponentsConfig 
2026-06-19T15:32:21,674  INFO Injector:86   --> provider: ConstantFactory{value=org.matsim.core.mobsim.qsim.components.QSimComponentsConfig@6d0be7ab}[Scopes.SINGLETON]
2026-06-19T15:32:21,675  INFO Injector:87   --> source: org.matsim.core.controler.Controler$10.install(Controler.java:518)
2026-06-19T15:32:21,675  INFO Injector:89   --> scope: eager singleton
2026-06-19T15:32:21,675  INFO Injector:94   ==full==> InstanceBinding{key=Key[type=org.matsim.core.mobsim.qsim.components.QSimComponentsConfig, annotation=[none]], source=org.matsim.core.controler.Controler$10.install(Controler.java:518), instance=org.matsim.core.mobsim.qsim.components.QSimComponentsConfig@6d0be7ab}
2026-06-19T15:32:21,676  INFO Injector:96 
2026-06-19T15:32:21,676  INFO Injector:85 org.matsim.vis.otfvis.OnTheFlyServer$NonPlanAgentQueryHelper 
2026-06-19T15:32:21,676  INFO Injector:86   --> provider: FactoryProxy{key=Key[type=org.matsim.vis.otfvis.OnTheFlyServer$NonPlanAgentQueryHelper, annotation=[none]], provider=com.google.inject.internal.ConstructorBindingImpl$Factory@1d4fb213}
2026-06-19T15:32:21,677  INFO Injector:87   --> source: org.matsim.contrib.dvrp.run.DvrpModule.install(DvrpModule.java:68)
2026-06-19T15:32:21,677  INFO Injector:89   --> scope: Scopes.NO_SCOPE
2026-06-19T15:32:21,677  INFO Injector:92   --> target: Key[type=org.matsim.contrib.dvrp.vrpagent.VrpAgentQueryHelper, annotation=[none]]
2026-06-19T15:32:21,678  INFO Injector:94   ==full==> LinkedKeyBinding{key=Key[type=org.matsim.vis.otfvis.OnTheFlyServer$NonPlanAgentQueryHelper, annotation=[none]], source=org.matsim.contrib.dvrp.run.DvrpModule.install(DvrpModule.java:68), scope=Scopes.NO_SCOPE, target=Key[type=org.matsim.contrib.dvrp.vrpagent.VrpAgentQueryHelper, annotation=[none]]}
2026-06-19T15:32:21,678  INFO Injector:96 
2026-06-19T15:32:21,679  INFO Injector:85 org.matsim.core.router.util.TravelTime @com.google.inject.name.Named("dvrp_initial")
2026-06-19T15:32:21,679  INFO Injector:86   --> provider: FactoryProxy{key=Key[type=org.matsim.core.router.util.TravelTime, annotation=@com.google.inject.name.Named("dvrp_initial")], provider=com.google.inject.internal.ConstructorBindingImpl$Factory@6ef60295}[Scopes.SINGLETON]
2026-06-19T15:32:21,679  INFO Injector:87   --> source: org.matsim.contrib.dvrp.trafficmonitoring.DvrpTravelTimeModule.install(DvrpTravelTimeModule.java:55)
2026-06-19T15:32:21,680  INFO Injector:89   --> scope: eager singleton
2026-06-19T15:32:21,680  INFO Injector:92   --> target: Key[type=org.matsim.contrib.dvrp.trafficmonitoring.QSimFreeSpeedTravelTime, annotation=[none]]
2026-06-19T15:32:21,680  INFO Injector:94   ==full==> LinkedKeyBinding{key=Key[type=org.matsim.core.router.util.TravelTime, annotation=@com.google.inject.name.Named("dvrp_initial")], source=org.matsim.contrib.dvrp.trafficmonitoring.DvrpTravelTimeModule.install(DvrpTravelTimeModule.java:55), scope=eager singleton, target=Key[type=org.matsim.contrib.dvrp.trafficmonitoring.QSimFreeSpeedTravelTime, annotation=[none]]}
2026-06-19T15:32:21,681  INFO Injector:96 
2026-06-19T15:32:21,681  INFO Injector:85 org.matsim.core.router.util.TravelTime @com.google.inject.name.Named("dvrp_observed")
2026-06-19T15:32:21,682  INFO Injector:86   --> provider: FactoryProxy{key=Key[type=org.matsim.core.router.util.TravelTime, annotation=@com.google.inject.name.Named("dvrp_observed")], provider=org.matsim.core.trafficmonitoring.TravelTimeCalculatorModule$1@2938127d[Scopes.SINGLETON]}
2026-06-19T15:32:21,682  INFO Injector:87   --> source: org.matsim.contrib.dvrp.trafficmonitoring.DvrpTravelTimeModule.install(DvrpTravelTimeModule.java:58)
2026-06-19T15:32:21,682  INFO Injector:89   --> scope: Scopes.NO_SCOPE
2026-06-19T15:32:21,683  INFO Injector:92   --> target: Key[type=org.matsim.core.router.util.TravelTime, annotation=@com.google.inject.name.Named("car")]
2026-06-19T15:32:21,683  INFO Injector:94   ==full==> LinkedKeyBinding{key=Key[type=org.matsim.core.router.util.TravelTime, annotation=@com.google.inject.name.Named("dvrp_observed")], source=org.matsim.contrib.dvrp.trafficmonitoring.DvrpTravelTimeModule.install(DvrpTravelTimeModule.java:58), scope=Scopes.NO_SCOPE, target=Key[type=org.matsim.core.router.util.TravelTime, annotation=@com.google.inject.name.Named("car")]}
2026-06-19T15:32:21,683  INFO Injector:96 
2026-06-19T15:32:21,684  INFO Injector:85 org.matsim.core.router.util.TravelTime @com.google.inject.name.Named("dvrp_estimated")
2026-06-19T15:32:21,684  INFO Injector:86   --> provider: FactoryProxy{key=Key[type=org.matsim.core.router.util.TravelTime, annotation=@com.google.inject.name.Named("dvrp_estimated")], provider=FactoryProxy{key=Key[type=org.matsim.contrib.dvrp.trafficmonitoring.DvrpTravelTimeEstimator, annotation=[none]], provider=com.google.inject.internal.ConstructorBindingImpl$Factory@3127cb44[Scopes.SINGLETON]}}
2026-06-19T15:32:21,685  INFO Injector:87   --> source: org.matsim.contrib.dvrp.trafficmonitoring.DvrpTravelTimeModule.install(DvrpTravelTimeModule.java:60)
2026-06-19T15:32:21,685  INFO Injector:89   --> scope: Scopes.NO_SCOPE
2026-06-19T15:32:21,687  INFO Injector:92   --> target: Key[type=org.matsim.contrib.dvrp.trafficmonitoring.DvrpTravelTimeEstimator, annotation=[none]]
2026-06-19T15:32:21,687  INFO Injector:94   ==full==> LinkedKeyBinding{key=Key[type=org.matsim.core.router.util.TravelTime, annotation=@com.google.inject.name.Named("dvrp_estimated")], source=org.matsim.contrib.dvrp.trafficmonitoring.DvrpTravelTimeModule.install(DvrpTravelTimeModule.java:60), scope=Scopes.NO_SCOPE, target=Key[type=org.matsim.contrib.dvrp.trafficmonitoring.DvrpTravelTimeEstimator, annotation=[none]]}
2026-06-19T15:32:21,688  INFO Injector:96 
2026-06-19T15:32:21,689  INFO Injector:85 org.matsim.core.mobsim.framework.listeners.MobsimListener @com.google.inject.internal.Element(setName=,uniqueId=186, type=MULTIBINDER, keyType=)
2026-06-19T15:32:21,689  INFO Injector:86   --> provider: FactoryProxy{key=Key[type=org.matsim.core.mobsim.framework.listeners.MobsimListener, annotation=@com.google.inject.internal.Element(setName=,uniqueId=186, type=MULTIBINDER, keyType=)], provider=com.google.inject.internal.ConstructorBindingImpl$Factory@3127cb44[Scopes.SINGLETON]}
2026-06-19T15:32:21,690  INFO Injector:87   --> source: org.matsim.contrib.dvrp.trafficmonitoring.DvrpTravelTimeModule.install(DvrpTravelTimeModule.java:63)
2026-06-19T15:32:21,690  INFO Injector:89   --> scope: Scopes.NO_SCOPE
2026-06-19T15:32:21,690  INFO Injector:92   --> target: Key[type=org.matsim.contrib.dvrp.trafficmonitoring.DvrpOfflineTravelTimeEstimator, annotation=[none]]
2026-06-19T15:32:21,691  INFO Injector:94   ==full==> LinkedKeyBinding{key=Key[type=org.matsim.core.mobsim.framework.listeners.MobsimListener, annotation=@com.google.inject.internal.Element(setName=,uniqueId=186, type=MULTIBINDER, keyType=)], source=org.matsim.contrib.dvrp.trafficmonitoring.DvrpTravelTimeModule.install(DvrpTravelTimeModule.java:63), scope=Scopes.NO_SCOPE, target=Key[type=org.matsim.contrib.dvrp.trafficmonitoring.DvrpOfflineTravelTimeEstimator, annotation=[none]]}
2026-06-19T15:32:21,691  INFO Injector:96 
2026-06-19T15:32:21,691  INFO Injector:85 org.matsim.core.controler.listener.ControlerListener @com.google.inject.internal.Element(setName=,uniqueId=187, type=MULTIBINDER, keyType=)
2026-06-19T15:32:21,692  INFO Injector:86   --> provider: FactoryProxy{key=Key[type=org.matsim.core.controler.listener.ControlerListener, annotation=@com.google.inject.internal.Element(setName=,uniqueId=187, type=MULTIBINDER, keyType=)], provider=com.google.inject.internal.ConstructorBindingImpl$Factory@3127cb44[Scopes.SINGLETON]}
2026-06-19T15:32:21,692  INFO Injector:87   --> source: org.matsim.contrib.dvrp.trafficmonitoring.DvrpTravelTimeModule.install(DvrpTravelTimeModule.java:64)
2026-06-19T15:32:21,692  INFO Injector:89   --> scope: Scopes.NO_SCOPE
2026-06-19T15:32:21,692  INFO Injector:92   --> target: Key[type=org.matsim.contrib.dvrp.trafficmonitoring.DvrpOfflineTravelTimeEstimator, annotation=[none]]
2026-06-19T15:32:21,693  INFO Injector:94   ==full==> LinkedKeyBinding{key=Key[type=org.matsim.core.controler.listener.ControlerListener, annotation=@com.google.inject.internal.Element(setName=,uniqueId=187, type=MULTIBINDER, keyType=)], source=org.matsim.contrib.dvrp.trafficmonitoring.DvrpTravelTimeModule.install(DvrpTravelTimeModule.java:64), scope=Scopes.NO_SCOPE, target=Key[type=org.matsim.contrib.dvrp.trafficmonitoring.DvrpOfflineTravelTimeEstimator, annotation=[none]]}
2026-06-19T15:32:21,693  INFO Injector:96 
2026-06-19T15:32:21,693  INFO Injector:85 org.matsim.contrib.dvrp.trafficmonitoring.DvrpTravelTimeEstimator 
2026-06-19T15:32:21,694  INFO Injector:86   --> provider: FactoryProxy{key=Key[type=org.matsim.contrib.dvrp.trafficmonitoring.DvrpTravelTimeEstimator, annotation=[none]], provider=com.google.inject.internal.ConstructorBindingImpl$Factory@3127cb44[Scopes.SINGLETON]}
2026-06-19T15:32:21,694  INFO Injector:87   --> source: org.matsim.contrib.dvrp.trafficmonitoring.DvrpTravelTimeModule.install(DvrpTravelTimeModule.java:76)
2026-06-19T15:32:21,694  INFO Injector:89   --> scope: Scopes.NO_SCOPE
2026-06-19T15:32:21,695  INFO Injector:92   --> target: Key[type=org.matsim.contrib.dvrp.trafficmonitoring.DvrpOfflineTravelTimeEstimator, annotation=[none]]
2026-06-19T15:32:21,695  INFO Injector:94   ==full==> LinkedKeyBinding{key=Key[type=org.matsim.contrib.dvrp.trafficmonitoring.DvrpTravelTimeEstimator, annotation=[none]], source=org.matsim.contrib.dvrp.trafficmonitoring.DvrpTravelTimeModule.install(DvrpTravelTimeModule.java:76), scope=Scopes.NO_SCOPE, target=Key[type=org.matsim.contrib.dvrp.trafficmonitoring.DvrpOfflineTravelTimeEstimator, annotation=[none]]}
2026-06-19T15:32:21,695  INFO Injector:96 
2026-06-19T15:32:21,695  INFO Injector:85 org.matsim.contrib.zone.skims.TravelTimeMatrix 
2026-06-19T15:32:21,696  INFO Injector:86   --> provider: org.matsim.contrib.dvrp.run.DvrpModule$1@50fb33a[Scopes.SINGLETON]
2026-06-19T15:32:21,696  INFO Injector:87   --> source: org.matsim.contrib.dvrp.run.DvrpModule.install(DvrpModule.java:75)
2026-06-19T15:32:21,696  INFO Injector:89   --> scope: Scopes.SINGLETON
2026-06-19T15:32:21,697  INFO Injector:94   ==full==> ProviderInstanceBinding{key=Key[type=org.matsim.contrib.zone.skims.TravelTimeMatrix, annotation=[none]], source=org.matsim.contrib.dvrp.run.DvrpModule.install(DvrpModule.java:75), scope=Scopes.SINGLETON, provider=org.matsim.contrib.dvrp.run.DvrpModule$1@50fb33a}
2026-06-19T15:32:21,697  INFO Injector:96 
2026-06-19T15:32:21,697  INFO Injector:85 org.matsim.api.core.v01.network.Network @com.google.inject.name.Named("dvrp_routing")
2026-06-19T15:32:21,698  INFO Injector:86   --> provider: Key[type=org.matsim.contrib.dvrp.router.DvrpGlobalRoutingNetworkProvider, annotation=[none]][Scopes.SINGLETON]
2026-06-19T15:32:21,698  INFO Injector:87   --> source: org.matsim.contrib.dvrp.run.DvrpModule.install(DvrpModule.java:92)
2026-06-19T15:32:21,698  INFO Injector:89   --> scope: eager singleton
2026-06-19T15:32:21,699  INFO Injector:94   ==full==> ProviderKeyBinding{key=Key[type=org.matsim.api.core.v01.network.Network, annotation=@com.google.inject.name.Named("dvrp_routing")], source=org.matsim.contrib.dvrp.run.DvrpModule.install(DvrpModule.java:92), scope=eager singleton, provider=Key[type=org.matsim.contrib.dvrp.router.DvrpGlobalRoutingNetworkProvider, annotation=[none]]}
2026-06-19T15:32:21,699  INFO Injector:96 
2026-06-19T15:32:21,700  INFO Injector:85 org.matsim.core.mobsim.qsim.AbstractQSimModule @com.google.inject.internal.Element(setName=,uniqueId=188, type=MULTIBINDER, keyType=)
2026-06-19T15:32:21,700  INFO Injector:86   --> provider: ConstantFactory{value=org.matsim.contrib.dvrp.run.DvrpModule$2@6732726}[Scopes.SINGLETON]
2026-06-19T15:32:21,701  INFO Injector:87   --> source: org.matsim.contrib.dvrp.run.DvrpModule.install(DvrpModule.java:96)
2026-06-19T15:32:21,701  INFO Injector:89   --> scope: eager singleton
2026-06-19T15:32:21,702  INFO Injector:94   ==full==> InstanceBinding{key=Key[type=org.matsim.core.mobsim.qsim.AbstractQSimModule, annotation=@com.google.inject.internal.Element(setName=,uniqueId=188, type=MULTIBINDER, keyType=)], source=org.matsim.contrib.dvrp.run.DvrpModule.install(DvrpModule.java:96), instance=org.matsim.contrib.dvrp.run.DvrpModule$2@6732726}
2026-06-19T15:32:21,702  INFO Injector:96 
2026-06-19T15:32:21,703  INFO Injector:85 org.matsim.core.mobsim.qsim.AbstractQSimModule @com.google.inject.internal.Element(setName=,uniqueId=189, type=MULTIBINDER, keyType=)
2026-06-19T15:32:21,703  INFO Injector:86   --> provider: ConstantFactory{value=org.matsim.core.mobsim.qsim.PreplanningEngineQSimModule@474821de}[Scopes.SINGLETON]
2026-06-19T15:32:21,704  INFO Injector:87   --> source: org.matsim.contrib.dvrp.passenger.PassengerModule.install(PassengerModule.java:39)
2026-06-19T15:32:21,704  INFO Injector:89   --> scope: eager singleton
2026-06-19T15:32:21,705  INFO Injector:94   ==full==> InstanceBinding{key=Key[type=org.matsim.core.mobsim.qsim.AbstractQSimModule, annotation=@com.google.inject.internal.Element(setName=,uniqueId=189, type=MULTIBINDER, keyType=)], source=org.matsim.contrib.dvrp.passenger.PassengerModule.install(PassengerModule.java:39), instance=org.matsim.core.mobsim.qsim.PreplanningEngineQSimModule@474821de}
2026-06-19T15:32:21,705  INFO Injector:96 
2026-06-19T15:32:21,705  INFO Injector:85 org.matsim.contrib.dvrp.run.DvrpMode @com.google.inject.internal.Element(setName=,uniqueId=165, type=MULTIBINDER, keyType=)
2026-06-19T15:32:21,706  INFO Injector:86   --> provider: ConstantFactory{value=@org.matsim.contrib.dvrp.run.DvrpMode(value=drt)}[Scopes.SINGLETON]
2026-06-19T15:32:21,706  INFO Injector:87   --> source: org.matsim.contrib.dvrp.run.DvrpModes.registerDvrpMode(DvrpModes.java:40)
2026-06-19T15:32:21,707  INFO Injector:89   --> scope: eager singleton
2026-06-19T15:32:21,707  INFO Injector:94   ==full==> InstanceBinding{key=Key[type=org.matsim.contrib.dvrp.run.DvrpMode, annotation=@com.google.inject.internal.Element(setName=,uniqueId=165, type=MULTIBINDER, keyType=)], source=org.matsim.contrib.dvrp.run.DvrpModes.registerDvrpMode(DvrpModes.java:40), instance=@org.matsim.contrib.dvrp.run.DvrpMode(value=drt)}
2026-06-19T15:32:21,708  INFO Injector:96 
2026-06-19T15:32:21,708  INFO Injector:85 org.matsim.api.core.v01.network.Network @org.matsim.contrib.dvrp.run.DvrpMode(value=drt)
2026-06-19T15:32:21,708  INFO Injector:86   --> provider: FactoryProxy{key=Key[type=org.matsim.api.core.v01.network.Network, annotation=@org.matsim.contrib.dvrp.run.DvrpMode(value=drt)], provider=Key[type=org.matsim.contrib.dvrp.router.DvrpGlobalRoutingNetworkProvider, annotation=[none]][Scopes.SINGLETON]}
2026-06-19T15:32:21,709  INFO Injector:87   --> source: org.matsim.core.modal.AbstractModalModule.bindModal(AbstractModalModule.java:59)
2026-06-19T15:32:21,709  INFO Injector:89   --> scope: Scopes.NO_SCOPE
2026-06-19T15:32:21,710  INFO Injector:92   --> target: Key[type=org.matsim.api.core.v01.network.Network, annotation=@com.google.inject.name.Named("dvrp_routing")]
2026-06-19T15:32:21,711  INFO Injector:94   ==full==> LinkedKeyBinding{key=Key[type=org.matsim.api.core.v01.network.Network, annotation=@org.matsim.contrib.dvrp.run.DvrpMode(value=drt)], source=org.matsim.core.modal.AbstractModalModule.bindModal(AbstractModalModule.java:59), scope=Scopes.NO_SCOPE, target=Key[type=org.matsim.api.core.v01.network.Network, annotation=@com.google.inject.name.Named("dvrp_routing")]}
2026-06-19T15:32:21,713  INFO Injector:96 
2026-06-19T15:32:21,713  INFO Injector:85 org.matsim.contrib.zone.skims.TravelTimeMatrix @org.matsim.contrib.dvrp.run.DvrpMode(value=drt)
2026-06-19T15:32:21,715  INFO Injector:86   --> provider: FactoryProxy{key=Key[type=org.matsim.contrib.zone.skims.TravelTimeMatrix, annotation=@org.matsim.contrib.dvrp.run.DvrpMode(value=drt)], provider=org.matsim.contrib.dvrp.run.DvrpModule$1@50fb33a[Scopes.SINGLETON]}
2026-06-19T15:32:21,716  INFO Injector:87   --> source: org.matsim.core.modal.AbstractModalModule.bindModal(AbstractModalModule.java:59)
2026-06-19T15:32:21,716  INFO Injector:89   --> scope: Scopes.NO_SCOPE
2026-06-19T15:32:21,717  INFO Injector:92   --> target: Key[type=org.matsim.contrib.zone.skims.TravelTimeMatrix, annotation=[none]]
2026-06-19T15:32:21,717  INFO Injector:94   ==full==> LinkedKeyBinding{key=Key[type=org.matsim.contrib.zone.skims.TravelTimeMatrix, annotation=@org.matsim.contrib.dvrp.run.DvrpMode(value=drt)], source=org.matsim.core.modal.AbstractModalModule.bindModal(AbstractModalModule.java:59), scope=Scopes.NO_SCOPE, target=Key[type=org.matsim.contrib.zone.skims.TravelTimeMatrix, annotation=[none]]}
2026-06-19T15:32:21,718  INFO Injector:96 
2026-06-19T15:32:21,718  INFO Injector:85 org.matsim.core.router.util.TravelTime @org.matsim.contrib.dvrp.run.DvrpMode(value=drt)
2026-06-19T15:32:21,720  INFO Injector:86   --> provider: FactoryProxy{key=Key[type=org.matsim.core.router.util.TravelTime, annotation=@org.matsim.contrib.dvrp.run.DvrpMode(value=drt)], provider=FactoryProxy{key=Key[type=org.matsim.core.router.util.TravelTime, annotation=@com.google.inject.name.Named("dvrp_estimated")], provider=FactoryProxy{key=Key[type=org.matsim.contrib.dvrp.trafficmonitoring.DvrpTravelTimeEstimator, annotation=[none]], provider=com.google.inject.internal.ConstructorBindingImpl$Factory@3127cb44[Scopes.SINGLETON]}}}
2026-06-19T15:32:21,720  INFO Injector:87   --> source: org.matsim.core.modal.AbstractModalModule.bindModal(AbstractModalModule.java:59)
2026-06-19T15:32:21,720  INFO Injector:89   --> scope: Scopes.NO_SCOPE
2026-06-19T15:32:21,721  INFO Injector:92   --> target: Key[type=org.matsim.core.router.util.TravelTime, annotation=@com.google.inject.name.Named("dvrp_estimated")]
2026-06-19T15:32:21,721  INFO Injector:94   ==full==> LinkedKeyBinding{key=Key[type=org.matsim.core.router.util.TravelTime, annotation=@org.matsim.contrib.dvrp.run.DvrpMode(value=drt)], source=org.matsim.core.modal.AbstractModalModule.bindModal(AbstractModalModule.java:59), scope=Scopes.NO_SCOPE, target=Key[type=org.matsim.core.router.util.TravelTime, annotation=@com.google.inject.name.Named("dvrp_estimated")]}
2026-06-19T15:32:21,721  INFO Injector:96 
2026-06-19T15:32:21,722  INFO Injector:85 org.matsim.core.router.costcalculators.TravelDisutilityFactory @org.matsim.contrib.dvrp.run.DvrpMode(value=drt)
2026-06-19T15:32:21,722  INFO Injector:86   --> provider: ConstantFactory{value=org.matsim.contrib.drt.run.DrtModeModule$$Lambda/0x0000000029356fd8@3234474}[Scopes.SINGLETON]
2026-06-19T15:32:21,722  INFO Injector:87   --> source: org.matsim.core.modal.AbstractModalModule.bindModal(AbstractModalModule.java:59)
2026-06-19T15:32:21,723  INFO Injector:89   --> scope: eager singleton
2026-06-19T15:32:21,723  INFO Injector:94   ==full==> InstanceBinding{key=Key[type=org.matsim.core.router.costcalculators.TravelDisutilityFactory, annotation=@org.matsim.contrib.dvrp.run.DvrpMode(value=drt)], source=org.matsim.core.modal.AbstractModalModule.bindModal(AbstractModalModule.java:59), instance=org.matsim.contrib.drt.run.DrtModeModule$$Lambda/0x0000000029356fd8@3234474}
2026-06-19T15:32:21,723  INFO Injector:96 
2026-06-19T15:32:21,724  INFO Injector:85 org.matsim.contrib.dvrp.fleet.FleetSpecification @org.matsim.contrib.dvrp.run.DvrpMode(value=drt)
2026-06-19T15:32:21,724  INFO Injector:86   --> provider: org.matsim.contrib.dvrp.fleet.FleetModule$$Lambda/0x0000000029358000@631cb129[Scopes.SINGLETON]
2026-06-19T15:32:21,724  INFO Injector:87   --> source: org.matsim.core.modal.AbstractModalModule.bindModal(AbstractModalModule.java:59)
2026-06-19T15:32:21,725  INFO Injector:89   --> scope: eager singleton
2026-06-19T15:32:21,725  INFO Injector:94   ==full==> ProviderInstanceBinding{key=Key[type=org.matsim.contrib.dvrp.fleet.FleetSpecification, annotation=@org.matsim.contrib.dvrp.run.DvrpMode(value=drt)], source=org.matsim.core.modal.AbstractModalModule.bindModal(AbstractModalModule.java:59), scope=eager singleton, provider=org.matsim.contrib.dvrp.fleet.FleetModule$$Lambda/0x0000000029358000@631cb129}
2026-06-19T15:32:21,725  INFO Injector:96 
2026-06-19T15:32:21,726  INFO Injector:85 org.matsim.core.mobsim.qsim.AbstractQSimModule @com.google.inject.internal.Element(setName=,uniqueId=166, type=MULTIBINDER, keyType=)
2026-06-19T15:32:21,726  INFO Injector:86   --> provider: ConstantFactory{value=org.matsim.contrib.dvrp.fleet.FleetModule$2@3d64c581}[Scopes.SINGLETON]
2026-06-19T15:32:21,726  INFO Injector:87   --> source: org.matsim.contrib.dvrp.fleet.FleetModule.install(FleetModule.java:92)
2026-06-19T15:32:21,727  INFO Injector:89   --> scope: eager singleton
2026-06-19T15:32:21,727  INFO Injector:94   ==full==> InstanceBinding{key=Key[type=org.matsim.core.mobsim.qsim.AbstractQSimModule, annotation=@com.google.inject.internal.Element(setName=,uniqueId=166, type=MULTIBINDER, keyType=)], source=org.matsim.contrib.dvrp.fleet.FleetModule.install(FleetModule.java:92), instance=org.matsim.contrib.dvrp.fleet.FleetModule$2@3d64c581}
2026-06-19T15:32:21,727  INFO Injector:96 
2026-06-19T15:32:21,727  INFO Injector:85 org.matsim.contrib.dvrp.fleet.FleetControlerListener @org.matsim.contrib.dvrp.run.DvrpMode(value=drt)
2026-06-19T15:32:21,728  INFO Injector:86   --> provider: org.matsim.core.modal.ModalProviders$1@75d982d3[Scopes.SINGLETON]
2026-06-19T15:32:21,728  INFO Injector:87   --> source: org.matsim.core.modal.AbstractModalModule.bindModal(AbstractModalModule.java:59)
2026-06-19T15:32:21,728  INFO Injector:89   --> scope: Scopes.SINGLETON
2026-06-19T15:32:21,729  INFO Injector:94   ==full==> ProviderInstanceBinding{key=Key[type=org.matsim.contrib.dvrp.fleet.FleetControlerListener, annotation=@org.matsim.contrib.dvrp.run.DvrpMode(value=drt)], source=org.matsim.core.modal.AbstractModalModule.bindModal(AbstractModalModule.java:59), scope=Scopes.SINGLETON, provider=org.matsim.core.modal.ModalProviders$1@75d982d3}
2026-06-19T15:32:21,729  INFO Injector:96 
2026-06-19T15:32:21,729  INFO Injector:85 org.matsim.core.controler.listener.ControlerListener @com.google.inject.internal.Element(setName=,uniqueId=167, type=MULTIBINDER, keyType=)
2026-06-19T15:32:21,730  INFO Injector:86   --> provider: FactoryProxy{key=Key[type=org.matsim.core.controler.listener.ControlerListener, annotation=@com.google.inject.internal.Element(setName=,uniqueId=167, type=MULTIBINDER, keyType=)], provider=org.matsim.core.modal.ModalProviders$1@75d982d3[Scopes.SINGLETON]}
2026-06-19T15:32:21,730  INFO Injector:87   --> source: org.matsim.contrib.dvrp.fleet.FleetModule.install(FleetModule.java:111)
2026-06-19T15:32:21,730  INFO Injector:89   --> scope: Scopes.NO_SCOPE
2026-06-19T15:32:21,732  INFO Injector:92   --> target: Key[type=org.matsim.contrib.dvrp.fleet.FleetControlerListener, annotation=@org.matsim.contrib.dvrp.run.DvrpMode(value=drt)]
2026-06-19T15:32:21,732  INFO Injector:94   ==full==> LinkedKeyBinding{key=Key[type=org.matsim.core.controler.listener.ControlerListener, annotation=@com.google.inject.internal.Element(setName=,uniqueId=167, type=MULTIBINDER, keyType=)], source=org.matsim.contrib.dvrp.fleet.FleetModule.install(FleetModule.java:111), scope=Scopes.NO_SCOPE, target=Key[type=org.matsim.contrib.dvrp.fleet.FleetControlerListener, annotation=@org.matsim.contrib.dvrp.run.DvrpMode(value=drt)]}
2026-06-19T15:32:21,733  INFO Injector:96 
2026-06-19T15:32:21,733  INFO Injector:85 org.matsim.vehicles.VehicleType @org.matsim.contrib.dvrp.run.DvrpMode(value=drt)
2026-06-19T15:32:21,734  INFO Injector:86   --> provider: ConstantFactory{value=org.matsim.vehicles.VehicleType@3d20e575}[Scopes.SINGLETON]
2026-06-19T15:32:21,734  INFO Injector:87   --> source: org.matsim.core.modal.AbstractModalModule.bindModal(AbstractModalModule.java:59)
2026-06-19T15:32:21,734  INFO Injector:89   --> scope: eager singleton
2026-06-19T15:32:21,735  INFO Injector:94   ==full==> InstanceBinding{key=Key[type=org.matsim.vehicles.VehicleType, annotation=@org.matsim.contrib.dvrp.run.DvrpMode(value=drt)], source=org.matsim.core.modal.AbstractModalModule.bindModal(AbstractModalModule.java:59), instance=org.matsim.vehicles.VehicleType@3d20e575}
2026-06-19T15:32:21,735  INFO Injector:96 
2026-06-19T15:32:21,736  INFO Injector:85 org.matsim.contrib.drt.analysis.zonal.DrtZonalSystem @org.matsim.contrib.dvrp.run.DvrpMode(value=drt)
2026-06-19T15:32:21,736  INFO Injector:86   --> provider: org.matsim.core.modal.ModalProviders$1@4f89331f[Scopes.SINGLETON]
2026-06-19T15:32:21,736  INFO Injector:87   --> source: org.matsim.core.modal.AbstractModalModule.bindModal(AbstractModalModule.java:59)
2026-06-19T15:32:21,737  INFO Injector:89   --> scope: eager singleton
2026-06-19T15:32:21,737  INFO Injector:94   ==full==> ProviderInstanceBinding{key=Key[type=org.matsim.contrib.drt.analysis.zonal.DrtZonalSystem, annotation=@org.matsim.contrib.dvrp.run.DvrpMode(value=drt)], source=org.matsim.core.modal.AbstractModalModule.bindModal(AbstractModalModule.java:59), scope=eager singleton, provider=org.matsim.core.modal.ModalProviders$1@4f89331f}
2026-06-19T15:32:21,737  INFO Injector:96 
2026-06-19T15:32:21,737  INFO Injector:85 org.matsim.contrib.drt.analysis.zonal.DrtZoneTargetLinkSelector @org.matsim.contrib.dvrp.run.DvrpMode(value=drt)
2026-06-19T15:32:21,738  INFO Injector:86   --> provider: org.matsim.core.modal.ModalProviders$1@618ff5c2[Scopes.SINGLETON]
2026-06-19T15:32:21,738  INFO Injector:87   --> source: org.matsim.core.modal.AbstractModalModule.bindModal(AbstractModalModule.java:59)
2026-06-19T15:32:21,738  INFO Injector:89   --> scope: eager singleton
2026-06-19T15:32:21,739  INFO Injector:94   ==full==> ProviderInstanceBinding{key=Key[type=org.matsim.contrib.drt.analysis.zonal.DrtZoneTargetLinkSelector, annotation=@org.matsim.contrib.dvrp.run.DvrpMode(value=drt)], source=org.matsim.core.modal.AbstractModalModule.bindModal(AbstractModalModule.java:59), scope=eager singleton, provider=org.matsim.core.modal.ModalProviders$1@618ff5c2}
2026-06-19T15:32:21,739  INFO Injector:96 
2026-06-19T15:32:21,741  INFO Injector:85 org.matsim.contrib.drt.analysis.zonal.ZonalIdleVehicleXYVisualiser @org.matsim.contrib.dvrp.run.DvrpMode(value=drt)
2026-06-19T15:32:21,741  INFO Injector:86   --> provider: org.matsim.core.modal.ModalProviders$1@16727bf0[Scopes.SINGLETON]
2026-06-19T15:32:21,742  INFO Injector:87   --> source: org.matsim.core.modal.AbstractModalModule.bindModal(AbstractModalModule.java:59)
2026-06-19T15:32:21,742  INFO Injector:89   --> scope: eager singleton
2026-06-19T15:32:21,742  INFO Injector:94   ==full==> ProviderInstanceBinding{key=Key[type=org.matsim.contrib.drt.analysis.zonal.ZonalIdleVehicleXYVisualiser, annotation=@org.matsim.contrib.dvrp.run.DvrpMode(value=drt)], source=org.matsim.core.modal.AbstractModalModule.bindModal(AbstractModalModule.java:59), scope=eager singleton, provider=org.matsim.core.modal.ModalProviders$1@16727bf0}
2026-06-19T15:32:21,742  INFO Injector:96 
2026-06-19T15:32:21,743  INFO Injector:85 org.matsim.core.controler.listener.ControlerListener @com.google.inject.internal.Element(setName=,uniqueId=168, type=MULTIBINDER, keyType=)
2026-06-19T15:32:21,743  INFO Injector:86   --> provider: FactoryProxy{key=Key[type=org.matsim.core.controler.listener.ControlerListener, annotation=@com.google.inject.internal.Element(setName=,uniqueId=168, type=MULTIBINDER, keyType=)], provider=org.matsim.core.modal.ModalProviders$1@16727bf0[Scopes.SINGLETON]}
2026-06-19T15:32:21,743  INFO Injector:87   --> source: org.matsim.contrib.drt.analysis.zonal.DrtModeZonalSystemModule.install(DrtModeZonalSystemModule.java:97)
2026-06-19T15:32:21,743  INFO Injector:89   --> scope: Scopes.NO_SCOPE
2026-06-19T15:32:21,744  INFO Injector:92   --> target: Key[type=org.matsim.contrib.drt.analysis.zonal.ZonalIdleVehicleXYVisualiser, annotation=@org.matsim.contrib.dvrp.run.DvrpMode(value=drt)]
2026-06-19T15:32:21,744  INFO Injector:94   ==full==> LinkedKeyBinding{key=Key[type=org.matsim.core.controler.listener.ControlerListener, annotation=@com.google.inject.internal.Element(setName=,uniqueId=168, type=MULTIBINDER, keyType=)], source=org.matsim.contrib.drt.analysis.zonal.DrtModeZonalSystemModule.install(DrtModeZonalSystemModule.java:97), scope=Scopes.NO_SCOPE, target=Key[type=org.matsim.contrib.drt.analysis.zonal.ZonalIdleVehicleXYVisualiser, annotation=@org.matsim.contrib.dvrp.run.DvrpMode(value=drt)]}
2026-06-19T15:32:21,744  INFO Injector:96 
2026-06-19T15:32:21,745  INFO Injector:85 org.matsim.core.events.handler.EventHandler @com.google.inject.internal.Element(setName=,uniqueId=169, type=MULTIBINDER, keyType=)
2026-06-19T15:32:21,745  INFO Injector:86   --> provider: FactoryProxy{key=Key[type=org.matsim.core.events.handler.EventHandler, annotation=@com.google.inject.internal.Element(setName=,uniqueId=169, type=MULTIBINDER, keyType=)], provider=org.matsim.core.modal.ModalProviders$1@16727bf0[Scopes.SINGLETON]}
2026-06-19T15:32:21,745  INFO Injector:87   --> source: org.matsim.contrib.drt.analysis.zonal.DrtModeZonalSystemModule.install(DrtModeZonalSystemModule.java:98)
2026-06-19T15:32:21,745  INFO Injector:89   --> scope: Scopes.NO_SCOPE
2026-06-19T15:32:21,746  INFO Injector:92   --> target: Key[type=org.matsim.contrib.drt.analysis.zonal.ZonalIdleVehicleXYVisualiser, annotation=@org.matsim.contrib.dvrp.run.DvrpMode(value=drt)]
2026-06-19T15:32:21,746  INFO Injector:94   ==full==> LinkedKeyBinding{key=Key[type=org.matsim.core.events.handler.EventHandler, annotation=@com.google.inject.internal.Element(setName=,uniqueId=169, type=MULTIBINDER, keyType=)], source=org.matsim.contrib.drt.analysis.zonal.DrtModeZonalSystemModule.install(DrtModeZonalSystemModule.java:98), scope=Scopes.NO_SCOPE, target=Key[type=org.matsim.contrib.drt.analysis.zonal.ZonalIdleVehicleXYVisualiser, annotation=@org.matsim.contrib.dvrp.run.DvrpMode(value=drt)]}
2026-06-19T15:32:21,746  INFO Injector:96 
2026-06-19T15:32:21,747  INFO Injector:85 org.matsim.contrib.drt.analysis.zonal.DrtZonalWaitTimesAnalyzer @org.matsim.contrib.dvrp.run.DvrpMode(value=drt)
2026-06-19T15:32:21,747  INFO Injector:86   --> provider: org.matsim.core.modal.ModalProviders$1@2f84acf7[Scopes.SINGLETON]
2026-06-19T15:32:21,747  INFO Injector:87   --> source: org.matsim.core.modal.AbstractModalModule.bindModal(AbstractModalModule.java:59)
2026-06-19T15:32:21,748  INFO Injector:89   --> scope: eager singleton
2026-06-19T15:32:21,748  INFO Injector:94   ==full==> ProviderInstanceBinding{key=Key[type=org.matsim.contrib.drt.analysis.zonal.DrtZonalWaitTimesAnalyzer, annotation=@org.matsim.contrib.dvrp.run.DvrpMode(value=drt)], source=org.matsim.core.modal.AbstractModalModule.bindModal(AbstractModalModule.java:59), scope=eager singleton, provider=org.matsim.core.modal.ModalProviders$1@2f84acf7}
2026-06-19T15:32:21,749  INFO Injector:96 
2026-06-19T15:32:21,749  INFO Injector:85 org.matsim.core.controler.listener.ControlerListener @com.google.inject.internal.Element(setName=,uniqueId=170, type=MULTIBINDER, keyType=)
2026-06-19T15:32:21,749  INFO Injector:86   --> provider: FactoryProxy{key=Key[type=org.matsim.core.controler.listener.ControlerListener, annotation=@com.google.inject.internal.Element(setName=,uniqueId=170, type=MULTIBINDER, keyType=)], provider=org.matsim.core.modal.ModalProviders$1@2f84acf7[Scopes.SINGLETON]}
2026-06-19T15:32:21,750  INFO Injector:87   --> source: org.matsim.contrib.drt.analysis.zonal.DrtModeZonalSystemModule.install(DrtModeZonalSystemModule.java:103)
2026-06-19T15:32:21,750  INFO Injector:89   --> scope: Scopes.NO_SCOPE
2026-06-19T15:32:21,751  INFO Injector:92   --> target: Key[type=org.matsim.contrib.drt.analysis.zonal.DrtZonalWaitTimesAnalyzer, annotation=@org.matsim.contrib.dvrp.run.DvrpMode(value=drt)]
2026-06-19T15:32:21,751  INFO Injector:94   ==full==> LinkedKeyBinding{key=Key[type=org.matsim.core.controler.listener.ControlerListener, annotation=@com.google.inject.internal.Element(setName=,uniqueId=170, type=MULTIBINDER, keyType=)], source=org.matsim.contrib.drt.analysis.zonal.DrtModeZonalSystemModule.install(DrtModeZonalSystemModule.java:103), scope=Scopes.NO_SCOPE, target=Key[type=org.matsim.contrib.drt.analysis.zonal.DrtZonalWaitTimesAnalyzer, annotation=@org.matsim.contrib.dvrp.run.DvrpMode(value=drt)]}
2026-06-19T15:32:21,752  INFO Injector:96 
2026-06-19T15:32:21,752  INFO Injector:85 org.matsim.core.mobsim.qsim.AbstractQSimModule @com.google.inject.internal.Element(setName=,uniqueId=171, type=MULTIBINDER, keyType=)
2026-06-19T15:32:21,753  INFO Injector:86   --> provider: ConstantFactory{value=org.matsim.contrib.drt.optimizer.rebalancing.mincostflow.DrtModeMinCostFlowRebalancingModule$1@5ec5ea63}[Scopes.SINGLETON]
2026-06-19T15:32:21,753  INFO Injector:87   --> source: org.matsim.contrib.drt.optimizer.rebalancing.mincostflow.DrtModeMinCostFlowRebalancingModule.install(DrtModeMinCostFlowRebalancingModule.java:57)
2026-06-19T15:32:21,753  INFO Injector:89   --> scope: eager singleton
2026-06-19T15:32:21,753  INFO Injector:94   ==full==> InstanceBinding{key=Key[type=org.matsim.core.mobsim.qsim.AbstractQSimModule, annotation=@com.google.inject.internal.Element(setName=,uniqueId=171, type=MULTIBINDER, keyType=)], source=org.matsim.contrib.drt.optimizer.rebalancing.mincostflow.DrtModeMinCostFlowRebalancingModule.install(DrtModeMinCostFlowRebalancingModule.java:57), instance=org.matsim.contrib.drt.optimizer.rebalancing.mincostflow.DrtModeMinCostFlowRebalancingModule$1@5ec5ea63}
2026-06-19T15:32:21,754  INFO Injector:96 
2026-06-19T15:32:21,755  INFO Injector:85 org.matsim.contrib.drt.optimizer.rebalancing.demandestimator.PreviousIterationDRTDemandEstimator @org.matsim.contrib.dvrp.run.DvrpMode(value=drt)
2026-06-19T15:32:21,755  INFO Injector:86   --> provider: org.matsim.core.modal.ModalProviders$1@291373d3[Scopes.SINGLETON]
2026-06-19T15:32:21,756  INFO Injector:87   --> source: org.matsim.core.modal.AbstractModalModule.bindModal(AbstractModalModule.java:59)
2026-06-19T15:32:21,757  INFO Injector:89   --> scope: eager singleton
2026-06-19T15:32:21,757  INFO Injector:94   ==full==> ProviderInstanceBinding{key=Key[type=org.matsim.contrib.drt.optimizer.rebalancing.demandestimator.PreviousIterationDRTDemandEstimator, annotation=@org.matsim.contrib.dvrp.run.DvrpMode(value=drt)], source=org.matsim.core.modal.AbstractModalModule.bindModal(AbstractModalModule.java:59), scope=eager singleton, provider=org.matsim.core.modal.ModalProviders$1@291373d3}
2026-06-19T15:32:21,758  INFO Injector:96 
2026-06-19T15:32:21,758  INFO Injector:85 org.matsim.contrib.drt.optimizer.rebalancing.demandestimator.ZonalDemandEstimator @org.matsim.contrib.dvrp.run.DvrpMode(value=drt)
2026-06-19T15:32:21,759  INFO Injector:86   --> provider: FactoryProxy{key=Key[type=org.matsim.contrib.drt.optimizer.rebalancing.demandestimator.ZonalDemandEstimator, annotation=@org.matsim.contrib.dvrp.run.DvrpMode(value=drt)], provider=org.matsim.core.modal.ModalProviders$1@291373d3[Scopes.SINGLETON]}
2026-06-19T15:32:21,759  INFO Injector:87   --> source: org.matsim.core.modal.AbstractModalModule.bindModal(AbstractModalModule.java:59)
2026-06-19T15:32:21,760  INFO Injector:89   --> scope: Scopes.NO_SCOPE
2026-06-19T15:32:21,760  INFO Injector:92   --> target: Key[type=org.matsim.contrib.drt.optimizer.rebalancing.demandestimator.PreviousIterationDRTDemandEstimator, annotation=@org.matsim.contrib.dvrp.run.DvrpMode(value=drt)]
2026-06-19T15:32:21,760  INFO Injector:94   ==full==> LinkedKeyBinding{key=Key[type=org.matsim.contrib.drt.optimizer.rebalancing.demandestimator.ZonalDemandEstimator, annotation=@org.matsim.contrib.dvrp.run.DvrpMode(value=drt)], source=org.matsim.core.modal.AbstractModalModule.bindModal(AbstractModalModule.java:59), scope=Scopes.NO_SCOPE, target=Key[type=org.matsim.contrib.drt.optimizer.rebalancing.demandestimator.PreviousIterationDRTDemandEstimator, annotation=@org.matsim.contrib.dvrp.run.DvrpMode(value=drt)]}
2026-06-19T15:32:21,760  INFO Injector:96 
2026-06-19T15:32:21,761  INFO Injector:85 org.matsim.core.events.handler.EventHandler @com.google.inject.internal.Element(setName=,uniqueId=172, type=MULTIBINDER, keyType=)
2026-06-19T15:32:21,761  INFO Injector:86   --> provider: FactoryProxy{key=Key[type=org.matsim.core.events.handler.EventHandler, annotation=@com.google.inject.internal.Element(setName=,uniqueId=172, type=MULTIBINDER, keyType=)], provider=org.matsim.core.modal.ModalProviders$1@291373d3[Scopes.SINGLETON]}
2026-06-19T15:32:21,761  INFO Injector:87   --> source: org.matsim.contrib.drt.optimizer.rebalancing.mincostflow.DrtModeMinCostFlowRebalancingModule.install(DrtModeMinCostFlowRebalancingModule.java:107)
2026-06-19T15:32:21,762  INFO Injector:89   --> scope: Scopes.NO_SCOPE
2026-06-19T15:32:21,762  INFO Injector:92   --> target: Key[type=org.matsim.contrib.drt.optimizer.rebalancing.demandestimator.PreviousIterationDRTDemandEstimator, annotation=@org.matsim.contrib.dvrp.run.DvrpMode(value=drt)]
2026-06-19T15:32:21,762  INFO Injector:94   ==full==> LinkedKeyBinding{key=Key[type=org.matsim.core.events.handler.EventHandler, annotation=@com.google.inject.internal.Element(setName=,uniqueId=172, type=MULTIBINDER, keyType=)], source=org.matsim.contrib.drt.optimizer.rebalancing.mincostflow.DrtModeMinCostFlowRebalancingModule.install(DrtModeMinCostFlowRebalancingModule.java:107), scope=Scopes.NO_SCOPE, target=Key[type=org.matsim.contrib.drt.optimizer.rebalancing.demandestimator.PreviousIterationDRTDemandEstimator, annotation=@org.matsim.contrib.dvrp.run.DvrpMode(value=drt)]}
2026-06-19T15:32:21,763  INFO Injector:96 
2026-06-19T15:32:21,763  INFO Injector:85 org.matsim.core.router.RoutingModule @com.google.inject.name.Named("drt")
2026-06-19T15:32:21,763  INFO Injector:86   --> provider: org.matsim.contrib.dvrp.router.DvrpRoutingModuleProvider@372ca2d6
2026-06-19T15:32:21,764  INFO Injector:87   --> source: org.matsim.contrib.drt.run.DrtModeRoutingModule.install(DrtModeRoutingModule.java:79)
2026-06-19T15:32:21,764  INFO Injector:89   --> scope: Scopes.NO_SCOPE
2026-06-19T15:32:21,764  INFO Injector:94   ==full==> ProviderInstanceBinding{key=Key[type=org.matsim.core.router.RoutingModule, annotation=@com.google.inject.name.Named("drt")], source=org.matsim.contrib.drt.run.DrtModeRoutingModule.install(DrtModeRoutingModule.java:79), scope=Scopes.NO_SCOPE, provider=org.matsim.contrib.dvrp.router.DvrpRoutingModuleProvider@372ca2d6}
2026-06-19T15:32:21,767  INFO Injector:96 
2026-06-19T15:32:21,768  INFO Injector:85 org.matsim.core.router.RoutingModule @com.google.inject.internal.Element(setName=@org.matsim.contrib.dvrp.run.DvrpMode(value=drt),uniqueId=173, type=MAPBINDER, keyType=org.matsim.contrib.dvrp.router.DvrpRoutingModuleProvider$Stage)
2026-06-19T15:32:21,769  INFO Injector:86   --> provider: org.matsim.contrib.dvrp.router.DvrpModeRoutingModule$DefaultMainLegRouterProvider@38ed139b
2026-06-19T15:32:21,769  INFO Injector:87   --> source: org.matsim.contrib.drt.run.DrtModeRoutingModule.install(DrtModeRoutingModule.java:80)
2026-06-19T15:32:21,770  INFO Injector:89   --> scope: Scopes.NO_SCOPE
2026-06-19T15:32:21,770  INFO Injector:94   ==full==> ProviderInstanceBinding{key=Key[type=org.matsim.core.router.RoutingModule, annotation=@com.google.inject.internal.Element(setName=@org.matsim.contrib.dvrp.run.DvrpMode(value=drt),uniqueId=173, type=MAPBINDER, keyType=org.matsim.contrib.dvrp.router.DvrpRoutingModuleProvider$Stage)], source=org.matsim.contrib.drt.run.DrtModeRoutingModule.install(DrtModeRoutingModule.java:80), scope=Scopes.NO_SCOPE, provider=org.matsim.contrib.dvrp.router.DvrpModeRoutingModule$DefaultMainLegRouterProvider@38ed139b}
2026-06-19T15:32:21,771  INFO Injector:96 
2026-06-19T15:32:21,771  INFO Injector:85 org.matsim.contrib.dvrp.router.DefaultMainLegRouter$RouteCreator @org.matsim.contrib.dvrp.run.DvrpMode(value=drt)
2026-06-19T15:32:21,772  INFO Injector:86   --> provider: org.matsim.contrib.drt.run.DrtModeRoutingModule$DrtRouteCreatorProvider@a5272be
2026-06-19T15:32:21,772  INFO Injector:87   --> source: org.matsim.core.modal.AbstractModalModule.bindModal(AbstractModalModule.java:59)
2026-06-19T15:32:21,772  INFO Injector:89   --> scope: Scopes.NO_SCOPE
2026-06-19T15:32:21,773  INFO Injector:94   ==full==> ProviderInstanceBinding{key=Key[type=org.matsim.contrib.dvrp.router.DefaultMainLegRouter$RouteCreator, annotation=@org.matsim.contrib.dvrp.run.DvrpMode(value=drt)], source=org.matsim.core.modal.AbstractModalModule.bindModal(AbstractModalModule.java:59), scope=Scopes.NO_SCOPE, provider=org.matsim.contrib.drt.run.DrtModeRoutingModule$DrtRouteCreatorProvider@a5272be}
2026-06-19T15:32:21,773  INFO Injector:96 
2026-06-19T15:32:21,773  INFO Injector:85 org.matsim.contrib.drt.routing.DrtStopNetwork @org.matsim.contrib.dvrp.run.DvrpMode(value=drt)
2026-06-19T15:32:21,774  INFO Injector:86   --> provider: org.matsim.contrib.drt.run.DrtModeRoutingModule$DrtStopNetworkProvider@58ba5b30[Scopes.SINGLETON]
2026-06-19T15:32:21,774  INFO Injector:87   --> source: org.matsim.core.modal.AbstractModalModule.bindModal(AbstractModalModule.java:59)
2026-06-19T15:32:21,774  INFO Injector:89   --> scope: eager singleton
2026-06-19T15:32:21,774  INFO Injector:94   ==full==> ProviderInstanceBinding{key=Key[type=org.matsim.contrib.drt.routing.DrtStopNetwork, annotation=@org.matsim.contrib.dvrp.run.DvrpMode(value=drt)], source=org.matsim.core.modal.AbstractModalModule.bindModal(AbstractModalModule.java:59), scope=eager singleton, provider=org.matsim.contrib.drt.run.DrtModeRoutingModule$DrtStopNetworkProvider@58ba5b30}
2026-06-19T15:32:21,775  INFO Injector:96 
2026-06-19T15:32:21,775  INFO Injector:85 org.matsim.contrib.dvrp.router.DvrpRoutingModule$AccessEgressFacilityFinder @org.matsim.contrib.dvrp.run.DvrpMode(value=drt)
2026-06-19T15:32:21,775  INFO Injector:86   --> provider: org.matsim.core.modal.ModalProviders$1@4dba773d[Scopes.SINGLETON]
2026-06-19T15:32:21,775  INFO Injector:87   --> source: org.matsim.core.modal.AbstractModalModule.bindModal(AbstractModalModule.java:59)
2026-06-19T15:32:21,776  INFO Injector:89   --> scope: eager singleton
2026-06-19T15:32:21,776  INFO Injector:94   ==full==> ProviderInstanceBinding{key=Key[type=org.matsim.contrib.dvrp.router.DvrpRoutingModule$AccessEgressFacilityFinder, annotation=@org.matsim.contrib.dvrp.run.DvrpMode(value=drt)], source=org.matsim.core.modal.AbstractModalModule.bindModal(AbstractModalModule.java:59), scope=eager singleton, provider=org.matsim.core.modal.ModalProviders$1@4dba773d}
2026-06-19T15:32:21,776  INFO Injector:96 
2026-06-19T15:32:21,777  INFO Injector:85 org.matsim.contrib.drt.routing.DrtRouteUpdater @org.matsim.contrib.dvrp.run.DvrpMode(value=drt)
2026-06-19T15:32:21,777  INFO Injector:86   --> provider: org.matsim.contrib.drt.run.DrtModeRoutingModule$1@1d9bd4da[Scopes.SINGLETON]
2026-06-19T15:32:21,777  INFO Injector:87   --> source: org.matsim.core.modal.AbstractModalModule.bindModal(AbstractModalModule.java:59)
2026-06-19T15:32:21,778  INFO Injector:89   --> scope: eager singleton
2026-06-19T15:32:21,778  INFO Injector:94   ==full==> ProviderInstanceBinding{key=Key[type=org.matsim.contrib.drt.routing.DrtRouteUpdater, annotation=@org.matsim.contrib.dvrp.run.DvrpMode(value=drt)], source=org.matsim.core.modal.AbstractModalModule.bindModal(AbstractModalModule.java:59), scope=eager singleton, provider=org.matsim.contrib.drt.run.DrtModeRoutingModule$1@1d9bd4da}
2026-06-19T15:32:21,778  INFO Injector:96 
2026-06-19T15:32:21,779  INFO Injector:85 org.matsim.core.controler.listener.ControlerListener @com.google.inject.internal.Element(setName=,uniqueId=175, type=MULTIBINDER, keyType=)
2026-06-19T15:32:21,779  INFO Injector:86   --> provider: FactoryProxy{key=Key[type=org.matsim.core.controler.listener.ControlerListener, annotation=@com.google.inject.internal.Element(setName=,uniqueId=175, type=MULTIBINDER, keyType=)], provider=org.matsim.contrib.drt.run.DrtModeRoutingModule$1@1d9bd4da[Scopes.SINGLETON]}
2026-06-19T15:32:21,779  INFO Injector:87   --> source: org.matsim.contrib.drt.run.DrtModeRoutingModule.install(DrtModeRoutingModule.java:115)
2026-06-19T15:32:21,779  INFO Injector:89   --> scope: Scopes.NO_SCOPE
2026-06-19T15:32:21,781  INFO Injector:92   --> target: Key[type=org.matsim.contrib.drt.routing.DrtRouteUpdater, annotation=@org.matsim.contrib.dvrp.run.DvrpMode(value=drt)]
2026-06-19T15:32:21,781  INFO Injector:94   ==full==> LinkedKeyBinding{key=Key[type=org.matsim.core.controler.listener.ControlerListener, annotation=@com.google.inject.internal.Element(setName=,uniqueId=175, type=MULTIBINDER, keyType=)], source=org.matsim.contrib.drt.run.DrtModeRoutingModule.install(DrtModeRoutingModule.java:115), scope=Scopes.NO_SCOPE, target=Key[type=org.matsim.contrib.drt.routing.DrtRouteUpdater, annotation=@org.matsim.contrib.dvrp.run.DvrpMode(value=drt)]}
2026-06-19T15:32:21,782  INFO Injector:96 
2026-06-19T15:32:21,782  INFO Injector:85 org.matsim.contrib.drt.fare.DrtFareHandler @org.matsim.contrib.dvrp.run.DvrpMode(value=drt)
2026-06-19T15:32:21,782  INFO Injector:86   --> provider: ConstantFactory{value=org.matsim.contrib.drt.fare.DrtFareHandler@4c58255}[Scopes.SINGLETON]
2026-06-19T15:32:21,783  INFO Injector:87   --> source: org.matsim.core.modal.AbstractModalModule.bindModal(AbstractModalModule.java:59)
2026-06-19T15:32:21,783  INFO Injector:89   --> scope: eager singleton
2026-06-19T15:32:21,783  INFO Injector:94   ==full==> InstanceBinding{key=Key[type=org.matsim.contrib.drt.fare.DrtFareHandler, annotation=@org.matsim.contrib.dvrp.run.DvrpMode(value=drt)], source=org.matsim.core.modal.AbstractModalModule.bindModal(AbstractModalModule.java:59), instance=org.matsim.contrib.drt.fare.DrtFareHandler@4c58255}
2026-06-19T15:32:21,783  INFO Injector:96 
2026-06-19T15:32:21,784  INFO Injector:85 org.matsim.core.events.handler.EventHandler @com.google.inject.internal.Element(setName=,uniqueId=176, type=MULTIBINDER, keyType=)
2026-06-19T15:32:21,784  INFO Injector:86   --> provider: FactoryProxy{key=Key[type=org.matsim.core.events.handler.EventHandler, annotation=@com.google.inject.internal.Element(setName=,uniqueId=176, type=MULTIBINDER, keyType=)], provider=ConstantFactory{value=org.matsim.contrib.drt.fare.DrtFareHandler@4c58255}[Scopes.SINGLETON]}
2026-06-19T15:32:21,784  INFO Injector:87   --> source: org.matsim.contrib.drt.run.DrtModeModule.install(DrtModeModule.java:74)
2026-06-19T15:32:21,785  INFO Injector:89   --> scope: Scopes.NO_SCOPE
2026-06-19T15:32:21,785  INFO Injector:92   --> target: Key[type=org.matsim.contrib.drt.fare.DrtFareHandler, annotation=@org.matsim.contrib.dvrp.run.DvrpMode(value=drt)]
2026-06-19T15:32:21,786  INFO Injector:94   ==full==> LinkedKeyBinding{key=Key[type=org.matsim.core.events.handler.EventHandler, annotation=@com.google.inject.internal.Element(setName=,uniqueId=176, type=MULTIBINDER, keyType=)], source=org.matsim.contrib.drt.run.DrtModeModule.install(DrtModeModule.java:74), scope=Scopes.NO_SCOPE, target=Key[type=org.matsim.contrib.drt.fare.DrtFareHandler, annotation=@org.matsim.contrib.dvrp.run.DvrpMode(value=drt)]}
2026-06-19T15:32:21,786  INFO Injector:96 
2026-06-19T15:32:21,787  INFO Injector:85 org.matsim.contrib.drt.schedule.StopDurationEstimator @org.matsim.contrib.dvrp.run.DvrpMode(value=drt)
2026-06-19T15:32:21,787  INFO Injector:86   --> provider: ConstantFactory{value=org.matsim.contrib.drt.run.DrtModeModule$$Lambda/0x0000000029362d48@3252747e}[Scopes.SINGLETON]
2026-06-19T15:32:21,788  INFO Injector:87   --> source: org.matsim.core.modal.AbstractModalModule.bindModal(AbstractModalModule.java:59)
2026-06-19T15:32:21,788  INFO Injector:89   --> scope: eager singleton
2026-06-19T15:32:21,788  INFO Injector:94   ==full==> InstanceBinding{key=Key[type=org.matsim.contrib.drt.schedule.StopDurationEstimator, annotation=@org.matsim.contrib.dvrp.run.DvrpMode(value=drt)], source=org.matsim.core.modal.AbstractModalModule.bindModal(AbstractModalModule.java:59), instance=org.matsim.contrib.drt.run.DrtModeModule$$Lambda/0x0000000029362d48@3252747e}
2026-06-19T15:32:21,789  INFO Injector:96 
2026-06-19T15:32:21,790  INFO Injector:85 org.matsim.contrib.drt.optimizer.insertion.IncrementalStopDurationEstimator @org.matsim.contrib.dvrp.run.DvrpMode(value=drt)
2026-06-19T15:32:21,790  INFO Injector:86   --> provider: ConstantFactory{value=org.matsim.contrib.drt.optimizer.insertion.DefaultIncrementalStopDurationEstimator@2b4b96a4}[Scopes.SINGLETON]
2026-06-19T15:32:21,791  INFO Injector:87   --> source: org.matsim.core.modal.AbstractModalModule.bindModal(AbstractModalModule.java:59)
2026-06-19T15:32:21,791  INFO Injector:89   --> scope: eager singleton
[...]
2026-06-19T15:32:33,803  INFO EventsManagerImpl:115  event # 65536
2026-06-19T15:32:35,040  INFO AbstractQNetsimEngine:366 SIMULATION (QNetsimEngine) AT 07:00:00 : #links=99 #nodes=15
2026-06-19T15:32:35,041  INFO QSim:566 SIMULATION (NEW QSim) AT 07:00:00 : #Veh=4872 lost=1 simT=25200.0s realT=10s; (s/r): 2520.0
2026-06-19T15:32:39,590  INFO AbstractQNetsimEngine:366 SIMULATION (QNetsimEngine) AT 08:00:00 : #links=99 #nodes=17
2026-06-19T15:32:39,621  INFO QSim:566 SIMULATION (NEW QSim) AT 08:00:00 : #Veh=4871 lost=2 simT=28800.0s realT=14s; (s/r): 2057.1428571428573
2026-06-19T15:32:40,896  INFO EventsManagerImpl:115  event # 262144
2026-06-19T15:32:42,452  INFO AbstractQNetsimEngine:366 SIMULATION (QNetsimEngine) AT 09:00:00 : #links=44 #nodes=6
2026-06-19T15:32:42,484  INFO QSim:566 SIMULATION (NEW QSim) AT 09:00:00 : #Veh=4871 lost=2 simT=32400.0s realT=17s; (s/r): 1905.8823529411766
2026-06-19T15:32:43,709  INFO AbstractQNetsimEngine:366 SIMULATION (QNetsimEngine) AT 10:00:00 : #links=29 #nodes=5
2026-06-19T15:32:43,740  INFO QSim:566 SIMULATION (NEW QSim) AT 10:00:00 : #Veh=4861 lost=2 simT=36000.0s realT=18s; (s/r): 2000.0
2026-06-19T15:32:44,893  INFO AbstractQNetsimEngine:366 SIMULATION (QNetsimEngine) AT 11:00:00 : #links=32 #nodes=6
2026-06-19T15:32:44,924  INFO QSim:566 SIMULATION (NEW QSim) AT 11:00:00 : #Veh=4797 lost=2 simT=39600.0s realT=19s; (s/r): 2084.2105263157896
2026-06-19T15:32:46,229  INFO AbstractQNetsimEngine:366 SIMULATION (QNetsimEngine) AT 12:00:00 : #links=26 #nodes=3
2026-06-19T15:32:46,260  INFO QSim:566 SIMULATION (NEW QSim) AT 12:00:00 : #Veh=4659 lost=2 simT=43200.0s realT=21s; (s/r): 2057.1428571428573
2026-06-19T15:32:47,380  INFO AbstractQNetsimEngine:366 SIMULATION (QNetsimEngine) AT 13:00:00 : #links=16 #nodes=1
2026-06-19T15:32:47,411  INFO QSim:566 SIMULATION (NEW QSim) AT 13:00:00 : #Veh=4503 lost=2 simT=46800.0s realT=22s; (s/r): 2127.2727272727275
2026-06-19T15:32:48,276  INFO AbstractQNetsimEngine:366 SIMULATION (QNetsimEngine) AT 14:00:00 : #links=17 #nodes=3
2026-06-19T15:32:48,309  INFO QSim:566 SIMULATION (NEW QSim) AT 14:00:00 : #Veh=4283 lost=2 simT=50400.0s realT=23s; (s/r): 2191.304347826087
2026-06-19T15:32:50,703  INFO AbstractQNetsimEngine:366 SIMULATION (QNetsimEngine) AT 15:00:00 : #links=83 #nodes=10
2026-06-19T15:32:50,733  INFO QSim:566 SIMULATION (NEW QSim) AT 15:00:00 : #Veh=3911 lost=2 simT=54000.0s realT=25s; (s/r): 2160.0
2026-06-19T15:32:54,847  INFO AbstractQNetsimEngine:366 SIMULATION (QNetsimEngine) AT 16:00:00 : #links=103 #nodes=20
2026-06-19T15:32:54,848  INFO QSim:566 SIMULATION (NEW QSim) AT 16:00:00 : #Veh=2906 lost=2 simT=57600.0s realT=29s; (s/r): 1986.2068965517242
2026-06-19T15:32:58,292  INFO AbstractQNetsimEngine:366 SIMULATION (QNetsimEngine) AT 17:00:00 : #links=78 #nodes=8
2026-06-19T15:32:58,324  INFO QSim:566 SIMULATION (NEW QSim) AT 17:00:00 : #Veh=1764 lost=3 simT=61200.0s realT=33s; (s/r): 1854.5454545454545
2026-06-19T15:32:59,914  INFO AbstractQNetsimEngine:366 SIMULATION (QNetsimEngine) AT 18:00:00 : #links=32 #nodes=4
2026-06-19T15:32:59,925  INFO QSim:566 SIMULATION (NEW QSim) AT 18:00:00 : #Veh=1075 lost=4 simT=64800.0s realT=34s; (s/r): 1905.8823529411766
2026-06-19T15:33:01,114  INFO AbstractQNetsimEngine:366 SIMULATION (QNetsimEngine) AT 19:00:00 : #links=16 #nodes=1
2026-06-19T15:33:01,144  INFO QSim:566 SIMULATION (NEW QSim) AT 19:00:00 : #Veh=750 lost=4 simT=68400.0s realT=36s; (s/r): 1900.0
2026-06-19T15:33:01,768  INFO AbstractQNetsimEngine:366 SIMULATION (QNetsimEngine) AT 20:00:00 : #links=13 #nodes=1
2026-06-19T15:33:01,776  INFO QSim:566 SIMULATION (NEW QSim) AT 20:00:00 : #Veh=548 lost=4 simT=72000.0s realT=36s; (s/r): 2000.0
2026-06-19T15:33:02,270  INFO AbstractQNetsimEngine:366 SIMULATION (QNetsimEngine) AT 21:00:00 : #links=7 #nodes=1
2026-06-19T15:33:02,301  INFO QSim:566 SIMULATION (NEW QSim) AT 21:00:00 : #Veh=437 lost=4 simT=75600.0s realT=37s; (s/r): 2043.2432432432433
2026-06-19T15:33:02,631  INFO AbstractQNetsimEngine:366 SIMULATION (QNetsimEngine) AT 22:00:00 : #links=3 #nodes=0
2026-06-19T15:33:02,662  INFO QSim:566 SIMULATION (NEW QSim) AT 22:00:00 : #Veh=366 lost=4 simT=79200.0s realT=37s; (s/r): 2140.5405405405404
2026-06-19T15:33:02,903  INFO AbstractQNetsimEngine:366 SIMULATION (QNetsimEngine) AT 23:00:00 : #links=0 #nodes=0
2026-06-19T15:33:02,935  INFO QSim:566 SIMULATION (NEW QSim) AT 23:00:00 : #Veh=350 lost=4 simT=82800.0s realT=38s; (s/r): 2178.9473684210525
2026-06-19T15:33:03,129  INFO AbstractQNetsimEngine:366 SIMULATION (QNetsimEngine) AT 24:00:00 : #links=0 #nodes=0
2026-06-19T15:33:03,134  INFO QSim:566 SIMULATION (NEW QSim) AT 24:00:00 : #Veh=0 lost=4 simT=86400.0s realT=38s; (s/r): 2273.684210526316
2026-06-19T15:33:03,246  INFO AbstractController$9:235 ### ITERATION 0 fires after mobsim event
2026-06-19T15:33:03,247  INFO Gbl:192 Thread performance: Thread=class org.matsim.core.events.SimStepParallelEventsManagerImpl$ProcessEventsRunnable0  cpu-time=7.140625sec
2026-06-19T15:33:03,278  INFO ControlerListenerManagerImpl:249 calling notifyAfterMobsim on org.matsim.analysis.LegTimesControlerListener
2026-06-19T15:33:03,283  INFO LegTimesControlerListener:51 [0] average trip (probably: leg) duration is: 407 seconds = 00:06:47
2026-06-19T15:33:03,283  INFO ControlerListenerManagerImpl:249 calling notifyAfterMobsim on org.matsim.core.events.MobsimScopeEventHandling
2026-06-19T15:33:03,284  INFO EventsManagerImpl:159 removing Event-Handler: org.matsim.contrib.dvrp.passenger.DefaultPassengerEngine
2026-06-19T15:33:03,286  INFO EventsManagerImpl:159 removing Event-Handler: org.matsim.contrib.dvrp.passenger.DefaultPassengerEngine
2026-06-19T15:33:03,288  INFO ControlerListenerManagerImpl:249 calling notifyAfterMobsim on org.matsim.contrib.dvrp.trafficmonitoring.DvrpOfflineTravelTimeEstimator
2026-06-19T15:33:03,444  INFO ControlerListenerManagerImpl:249 calling notifyAfterMobsim on org.matsim.core.scoring.EventsToActivities$1
2026-06-19T15:33:03,489  INFO ControlerListenerManagerImpl:252 [it.0] all ControlerAfterMobsimListeners called.
2026-06-19T15:33:03,491  INFO AbstractController$4:160 ### ITERATION 0 fires scoring event
2026-06-19T15:33:03,492  INFO ControlerListenerManagerImpl:184 calling notifyScoring on org.matsim.core.scoring.PlansScoringImpl
2026-06-19T15:33:03,503  INFO NewScoreAssignerImpl:58 it: 0 msaStart: null
2026-06-19T15:33:03,509  INFO ControlerListenerManagerImpl:195 [it.0] all ControlerScoringListeners called.
2026-06-19T15:33:03,511  INFO AbstractController$5:168 ### ITERATION 0 fires iteration end event
2026-06-19T15:33:03,512  INFO ControlerListenerManagerImpl:161 calling notifyIterationEnds on org.matsim.core.controler.corelisteners.EventsHandlingImpl
2026-06-19T15:33:03,513  INFO EventsManagerImpl:159 removing Event-Handler: org.matsim.core.events.algorithms.EventWriterXML
2026-06-19T15:33:03,514  INFO EventsManagerImpl:159 removing Event-Handler: org.matsim.core.events.algorithms.EventWriterXML
2026-06-19T15:33:03,514  INFO ControlerListenerManagerImpl:161 calling notifyIterationEnds on org.matsim.core.scoring.PlansScoringImpl
2026-06-19T15:33:03,519  INFO ControlerListenerManagerImpl:168 calling notifyIterationEnds on org.matsim.counts.CountsControlerListener
2026-06-19T15:33:03,520  INFO ControlerListenerManagerImpl:168 calling notifyIterationEnds on org.matsim.analysis.ModeStatsControlerListener
2026-06-19T15:33:03,532  INFO ModeStatsControlerListener:145 Mode shares over all 10014.0 trips found. MainModeIdentifier: class org.matsim.core.router.RoutingModeMainModeIdentifier
2026-06-19T15:33:03,532  INFO ModeStatsControlerListener:152 -- mode share of mode drt = 1.0
2026-06-19T15:33:03,534  INFO ControlerListenerManagerImpl:168 calling notifyIterationEnds on org.matsim.analysis.ScoreStatsControlerListener
2026-06-19T15:33:03,539  INFO ScoreStatsControlerListener:149 -- avg. score of the executed plan of each agent: 89.37720634139352
2026-06-19T15:33:03,539  INFO ScoreStatsControlerListener:150 -- avg. score of the worst plan of each agent: 89.37720634139352
2026-06-19T15:33:03,540  INFO ScoreStatsControlerListener:151 -- avg. of the avg. plan score per agent: 89.37720634139352
2026-06-19T15:33:03,541  INFO ScoreStatsControlerListener:152 -- avg. score of the best plan of each agent: 89.37720634139352
2026-06-19T15:33:03,543  INFO ControlerListenerManagerImpl:168 calling notifyIterationEnds on org.matsim.analysis.IterationTravelStatsControlerListener
2026-06-19T15:33:03,590  INFO TravelDistanceStats:144 -- average leg distance per plan (executed plans only): 3053.8104843466454 meters
2026-06-19T15:33:03,622  INFO TravelDistanceStats:145 average leg distance per Person (executed plans only): 20251.158891773885 meters (statistic on all 29994 legs which have a finite distance)
2026-06-19T15:33:03,622  INFO TravelDistanceStats:146 -- average trip distance per plan (executed plans only): 9153.69288283609 meters
2026-06-19T15:33:03,623  INFO TravelDistanceStats:147 average trip distance per Person (executed plans only): 20250.243419336264 meters (statistic on all 10006 trips which have a finite distance)
2026-06-19T15:33:03,623  INFO TravelDistanceStats:148 (TravelDistanceStats takes an average over all legs where the simulation reports travelled (network) distances
2026-06-19T15:33:03,623  INFO TravelDistanceStats:149 (and teleported legs whose route contains a distance.)
2026-06-19T15:33:05,552  INFO ControlerListenerManagerImpl:168 calling notifyIterationEnds on org.matsim.analysis.LegHistogramListener
2026-06-19T15:33:05,590  INFO LegHistogramListener:73 number of legs:	29998	100%
2026-06-19T15:33:05,592  INFO LegHistogramListener:80 number of drt legs:	9996	33.322221481432095%
2026-06-19T15:33:05,593  INFO LegHistogramListener:80 number of walk legs:	20002	66.6777785185679%
2026-06-19T15:33:05,994  INFO ControlerListenerManagerImpl:168 calling notifyIterationEnds on org.matsim.analysis.LinkStatsControlerListener
2026-06-19T15:33:05,994  INFO ControlerListenerManagerImpl:168 calling notifyIterationEnds on org.matsim.contrib.drt.analysis.DrtAnalysisControlerListener
2026-06-19T15:33:09,161  INFO ControlerListenerManagerImpl:168 calling notifyIterationEnds on org.matsim.contrib.common.timeprofile.ProfileWriter
2026-06-19T15:33:09,611  INFO ControlerListenerManagerImpl:168 calling notifyIterationEnds on org.matsim.contrib.common.timeprofile.ProfileWriter
2026-06-19T15:33:09,978  INFO ControlerListenerManagerImpl:168 calling notifyIterationEnds on org.matsim.contrib.drt.analysis.zonal.DrtZonalWaitTimesAnalyzer
2026-06-19T15:33:10,011  INFO ControlerListenerManagerImpl:168 calling notifyIterationEnds on org.matsim.contrib.drt.analysis.zonal.ZonalIdleVehicleXYVisualiser
2026-06-19T15:33:10,025  INFO ControlerListenerManagerImpl:172 [it.0] all ControlerIterationEndsListeners called.
2026-06-19T15:33:10,162  INFO AbstractController:182 ### ITERATION 0 ENDS
2026-06-19T15:33:10,193  INFO AbstractController:183 ###################################################
2026-06-19T15:33:10,193  INFO MatsimRuntimeModifications:80 S H U T D O W N   ---   start shutdown.
2026-06-19T15:33:10,194  INFO ControlerListenerManagerImpl:122 calling notifyShutdown on org.matsim.core.controler.corelisteners.EventsHandlingImpl
2026-06-19T15:33:10,194  INFO ControlerListenerManagerImpl:122 calling notifyShutdown on org.matsim.core.controler.corelisteners.DumpDataAtEndImpl
2026-06-19T15:33:10,198  INFO Counter:70 [PopulationWriter] dumped person # 1
2026-06-19T15:33:10,199  INFO Counter:70 [PopulationWriter] dumped person # 2
2026-06-19T15:33:10,200  INFO Counter:70 [PopulationWriter] dumped person # 4
2026-06-19T15:33:10,201  INFO Counter:70 [PopulationWriter] dumped person # 8
2026-06-19T15:33:10,201  INFO Counter:70 [PopulationWriter] dumped person # 16
2026-06-19T15:33:10,203  INFO Counter:70 [PopulationWriter] dumped person # 32
2026-06-19T15:33:10,208  INFO Counter:70 [PopulationWriter] dumped person # 64
2026-06-19T15:33:10,216  INFO Counter:70 [PopulationWriter] dumped person # 128
2026-06-19T15:33:10,232  INFO Counter:70 [PopulationWriter] dumped person # 256
2026-06-19T15:33:10,259  INFO Counter:70 [PopulationWriter] dumped person # 512
2026-06-19T15:33:10,327  INFO Counter:70 [PopulationWriter] dumped person # 1024
2026-06-19T15:33:10,469  INFO Counter:70 [PopulationWriter] dumped person # 2048
2026-06-19T15:33:10,716  INFO Counter:70 [PopulationWriter] dumped person # 4096
2026-06-19T15:33:10,784  INFO PopulationWriter:145 Population written to: output/capacity_wait_C5/output_plans.xml.gz
2026-06-19T15:33:10,788  INFO Counter:75 [PopulationWriter] dumped person # 4523
2026-06-19T15:33:10,791  INFO NetworkWriter:70 Writing network to file: output/capacity_wait_C5/output_network.xml.gz...
2026-06-19T15:33:10,936  INFO NetworkWriter:73 done.
2026-06-19T15:33:10,976  INFO Config:551 setting context to [file:/D:/Study/TUB/So2026/ITS/GroupAssignment/ITS-Homework2/Assignment_2/Task3-Cottbus/]
2026-06-19T15:33:10,980  INFO Config:551 setting context to [file:/D:/Study/TUB/So2026/ITS/GroupAssignment/ITS-Homework2/Assignment_2/Task3-Cottbus/]
2026-06-19T15:33:10,984  INFO Config:551 setting context to [file:/D:/Study/TUB/So2026/ITS/GroupAssignment/ITS-Homework2/Assignment_2/Task3-Cottbus/]
2026-06-19T15:33:10,987  INFO Config:551 setting context to [file:/D:/Study/TUB/So2026/ITS/GroupAssignment/ITS-Homework2/Assignment_2/Task3-Cottbus/]
2026-06-19T15:33:10,990  INFO Config:551 setting context to [file:/D:/Study/TUB/So2026/ITS/GroupAssignment/ITS-Homework2/Assignment_2/Task3-Cottbus/]
2026-06-19T15:33:10,993  INFO Config:551 setting context to [file:/D:/Study/TUB/So2026/ITS/GroupAssignment/ITS-Homework2/Assignment_2/Task3-Cottbus/]
2026-06-19T15:33:10,995  INFO Config:551 setting context to [file:/D:/Study/TUB/So2026/ITS/GroupAssignment/ITS-Homework2/Assignment_2/Task3-Cottbus/]
2026-06-19T15:33:10,998  INFO Config:551 setting context to [file:/D:/Study/TUB/So2026/ITS/GroupAssignment/ITS-Homework2/Assignment_2/Task3-Cottbus/]
2026-06-19T15:33:10,999  INFO Config:551 setting context to [file:/D:/Study/TUB/So2026/ITS/GroupAssignment/ITS-Homework2/Assignment_2/Task3-Cottbus/]
2026-06-19T15:33:11,001  INFO Config:551 setting context to [file:/D:/Study/TUB/So2026/ITS/GroupAssignment/ITS-Homework2/Assignment_2/Task3-Cottbus/]
2026-06-19T15:33:11,002  INFO Config:551 setting context to [file:/D:/Study/TUB/So2026/ITS/GroupAssignment/ITS-Homework2/Assignment_2/Task3-Cottbus/]
2026-06-19T15:33:11,004  INFO Config:551 setting context to [file:/D:/Study/TUB/So2026/ITS/GroupAssignment/ITS-Homework2/Assignment_2/Task3-Cottbus/]
2026-06-19T15:33:11,005  INFO Config:551 setting context to [file:/D:/Study/TUB/So2026/ITS/GroupAssignment/ITS-Homework2/Assignment_2/Task3-Cottbus/]
2026-06-19T15:33:11,009  INFO Config:551 setting context to [file:/D:/Study/TUB/So2026/ITS/GroupAssignment/ITS-Homework2/Assignment_2/Task3-Cottbus/]
2026-06-19T15:33:11,011  INFO Config:551 setting context to [file:/D:/Study/TUB/So2026/ITS/GroupAssignment/ITS-Homework2/Assignment_2/Task3-Cottbus/]
2026-06-19T15:33:11,013  INFO Config:551 setting context to [file:/D:/Study/TUB/So2026/ITS/GroupAssignment/ITS-Homework2/Assignment_2/Task3-Cottbus/]
2026-06-19T15:33:11,015  INFO Config:551 setting context to [file:/D:/Study/TUB/So2026/ITS/GroupAssignment/ITS-Homework2/Assignment_2/Task3-Cottbus/]
2026-06-19T15:33:11,017  INFO Config:551 setting context to [file:/D:/Study/TUB/So2026/ITS/GroupAssignment/ITS-Homework2/Assignment_2/Task3-Cottbus/]
2026-06-19T15:33:11,026  INFO Config:551 setting context to [file:/D:/Study/TUB/So2026/ITS/GroupAssignment/ITS-Homework2/Assignment_2/Task3-Cottbus/]
2026-06-19T15:33:11,028  INFO Config:551 setting context to [file:/D:/Study/TUB/So2026/ITS/GroupAssignment/ITS-Homework2/Assignment_2/Task3-Cottbus/]
2026-06-19T15:33:11,031  INFO Config:551 setting context to [file:/D:/Study/TUB/So2026/ITS/GroupAssignment/ITS-Homework2/Assignment_2/Task3-Cottbus/]
2026-06-19T15:33:11,032  INFO Config:551 setting context to [file:/D:/Study/TUB/So2026/ITS/GroupAssignment/ITS-Homework2/Assignment_2/Task3-Cottbus/]
2026-06-19T15:33:11,036  INFO Config:551 setting context to [file:/D:/Study/TUB/So2026/ITS/GroupAssignment/ITS-Homework2/Assignment_2/Task3-Cottbus/]
2026-06-19T15:33:11,038  INFO Config:551 setting context to [file:/D:/Study/TUB/So2026/ITS/GroupAssignment/ITS-Homework2/Assignment_2/Task3-Cottbus/]
2026-06-19T15:33:11,040  INFO Config:551 setting context to [file:/D:/Study/TUB/So2026/ITS/GroupAssignment/ITS-Homework2/Assignment_2/Task3-Cottbus/]
2026-06-19T15:33:11,043  INFO Config:551 setting context to [file:/D:/Study/TUB/So2026/ITS/GroupAssignment/ITS-Homework2/Assignment_2/Task3-Cottbus/]
2026-06-19T15:33:11,045  INFO Config:551 setting context to [file:/D:/Study/TUB/So2026/ITS/GroupAssignment/ITS-Homework2/Assignment_2/Task3-Cottbus/]
2026-06-19T15:33:11,047  INFO Config:551 setting context to [file:/D:/Study/TUB/So2026/ITS/GroupAssignment/ITS-Homework2/Assignment_2/Task3-Cottbus/]
2026-06-19T15:33:11,048  INFO Config:551 setting context to [file:/D:/Study/TUB/So2026/ITS/GroupAssignment/ITS-Homework2/Assignment_2/Task3-Cottbus/]
2026-06-19T15:33:11,050  INFO Config:551 setting context to [file:/D:/Study/TUB/So2026/ITS/GroupAssignment/ITS-Homework2/Assignment_2/Task3-Cottbus/]
2026-06-19T15:33:11,056  INFO MatsimVehicleWriter:55 about to write vehicles to: output/capacity_wait_C5/output_vehicles.xml.gz
2026-06-19T15:33:11,057  INFO VehicleWriterV2:64 about to write vehicles to: output/capacity_wait_C5/output_vehicles.xml.gz
2026-06-19T15:33:11,075  INFO MatsimVehicleWriter:55 about to write vehicles to: output/capacity_wait_C5/output_allVehicles.xml.gz
2026-06-19T15:33:11,075  INFO VehicleWriterV2:64 about to write vehicles to: output/capacity_wait_C5/output_allVehicles.xml.gz
2026-06-19T15:33:11,079  INFO HouseholdsWriterV10:67 about to write  households to: output/capacity_wait_C5/output_households.xml.gz
2026-06-19T15:33:11,080  INFO Counter:75 [HouseholdsWriter] wrote household # 0
2026-06-19T15:33:11,106  INFO ControlerListenerManagerImpl:127 calling notifyShutdown on org.matsim.analysis.ScoreStatsControlerListener
2026-06-19T15:33:11,171  INFO ControlerListenerManagerImpl:127 calling notifyShutdown on org.matsim.analysis.IterationTravelStatsControlerListener
2026-06-19T15:33:11,172  INFO IterationTravelStatsControlerListener:115 Writing all Person and Attributes to personscsv
2026-06-19T15:33:11,234  INFO IterationTravelStatsControlerListener:159 ...done
2026-06-19T15:33:11,236  INFO ControlerListenerManagerImpl:127 calling notifyShutdown on org.matsim.analysis.LinkStatsControlerListener
2026-06-19T15:33:11,433  INFO ControlerListenerManagerImpl:127 calling notifyShutdown on org.matsim.contrib.drt.analysis.DrtAnalysisControlerListener
2026-06-19T15:33:11,514  INFO ControlerListenerManagerImpl:127 calling notifyShutdown on org.matsim.contrib.drt.routing.DefaultDrtRouteUpdater
2026-06-19T15:33:11,548  INFO ControlerListenerManagerImpl:127 calling notifyShutdown on org.matsim.contrib.drt.analysis.zonal.DrtZonalWaitTimesAnalyzer
2026-06-19T15:33:12,441  INFO ShapeFileWriter:51 Writing shapefile to output/capacity_wait_C5/drt_waitStats_drt_zonal.shp
2026-06-19T15:33:13,052  INFO ControlerListenerManagerImpl:127 calling notifyShutdown on org.matsim.contrib.dvrp.fleet.FleetControlerListener
2026-06-19T15:33:13,093  INFO ControlerListenerManagerImpl:130 all ControlerShutdownListeners called.
2026-06-19T15:33:13,094  INFO MatsimRuntimeModifications:103 S H U T D O W N   ---   shutdown completed.
2026-06-19T15:33:13,094  INFO OutputDirectoryLogging:171 closing the logfile, i.e. messages sent to the logger after this message are not written to the logfile.
2026-06-19T15:33:13,095  INFO OutputDirectoryLogging:171 closing the logfile, i.e. messages sent to the logger after this message are not written to the logfile.
