2026-06-18T12:15:19,458  INFO IOUtils:213 Resolved D:\Study\TUB\So2026\ITS\GroupAssignment\ITS-Homework2\Assignment_2\Task3-Cottbus\config_S2.xml to D:\Study\TUB\So2026\ITS\GroupAssignment\ITS-Homework2\Assignment_2\Task3-Cottbus\config_S2.xml
2026-06-18T12:15:19,469  INFO Config:551 setting context to [file:/D:/Study/TUB/So2026/ITS/GroupAssignment/ITS-Homework2/Assignment_2/Task3-Cottbus/]
2026-06-18T12:15:19,549  INFO Version:21 HV000001: Hibernate Validator master-SNAPSHOT
2026-06-18T12:15:19,716  INFO MatsimXmlParser:165 starting to parse xml from url file:/D:/Study/TUB/So2026/ITS/GroupAssignment/ITS-Homework2/Assignment_2/Task3-Cottbus/config_S2.xml ...
2026-06-18T12:15:19,763  INFO ConfigReader:103 using config_v2-reader
2026-06-18T12:15:19,766  INFO MatsimXmlParser:281 Trying to load http://www.matsim.org/files/dtd/config_v2.dtd. In some cases (e.g. network interface up but no connection), this may take a bit.
2026-06-18T12:15:19,998  INFO Config:551 setting context to [file:/D:/Study/TUB/So2026/ITS/GroupAssignment/ITS-Homework2/Assignment_2/Task3-Cottbus/config_S2.xml]
2026-06-18T12:15:20,027  INFO ScenarioLoaderImpl:135 loading network from file:/D:/Study/TUB/So2026/ITS/GroupAssignment/ITS-Homework2/Assignment_2/Task3-Cottbus/network.xml.gz
2026-06-18T12:15:20,031  INFO MatsimXmlParser:165 starting to parse xml from url file:/D:/Study/TUB/So2026/ITS/GroupAssignment/ITS-Homework2/Assignment_2/Task3-Cottbus/network.xml.gz ...
2026-06-18T12:15:20,035  INFO MatsimNetworkReader:116 using network_v1-reader.
2026-06-18T12:15:20,036  INFO MatsimXmlParser:281 Trying to load http://www.matsim.org/files/dtd/network_v1.dtd. In some cases (e.g. network interface up but no connection), this may take a bit.
2026-06-18T12:15:20,106  INFO NetworkImpl:165  node # 1
2026-06-18T12:15:20,111  INFO NetworkImpl:165  node # 4
2026-06-18T12:15:20,115  INFO NetworkImpl:165  node # 16
2026-06-18T12:15:20,122  INFO NetworkImpl:165  node # 64
2026-06-18T12:15:20,141  INFO NetworkImpl:165  node # 256
2026-06-18T12:15:20,158  INFO NetworkImpl:165  node # 1024
2026-06-18T12:15:20,209  INFO NetworkImpl:165  node # 4096
2026-06-18T12:15:20,223  INFO NetworkImpl:161  link # 1
2026-06-18T12:15:20,225  INFO NetworkImpl:161  link # 4
2026-06-18T12:15:20,229  INFO NetworkImpl:161  link # 16
2026-06-18T12:15:20,234  INFO NetworkImpl:161  link # 64
2026-06-18T12:15:20,249  INFO NetworkImpl:161  link # 256
2026-06-18T12:15:20,276  INFO NetworkImpl:161  link # 1024
2026-06-18T12:15:20,368  INFO NetworkImpl:161  link # 4096
2026-06-18T12:15:20,480  INFO ScenarioLoaderImpl:172 no facilities file set in config, therefore not loading any facilities.  This is not a problem except if you are using facilities
2026-06-18T12:15:20,483  INFO ScenarioLoaderImpl:188 no facility-attributes file set in config, not loading any facility attributes
2026-06-18T12:15:20,484  INFO ScenarioLoaderImpl:196 loading population from file:/D:/Study/TUB/So2026/ITS/GroupAssignment/ITS-Homework2/Assignment_2/Task3-Cottbus/plans.xml
2026-06-18T12:15:20,490  INFO MatsimXmlParser:165 starting to parse xml from url file:/D:/Study/TUB/So2026/ITS/GroupAssignment/ITS-Homework2/Assignment_2/Task3-Cottbus/plans.xml ...
2026-06-18T12:15:20,695  INFO PopulationReader:124 using population_v6-reader.
2026-06-18T12:15:20,698  INFO MatsimXmlParser:281 Trying to load http://www.matsim.org/files/dtd/population_v6.dtd. In some cases (e.g. network interface up but no connection), this may take a bit.
2026-06-18T12:15:20,833  INFO PopulationImpl:107  person # 1
2026-06-18T12:15:20,838  INFO PopulationImpl:107  person # 4
2026-06-18T12:15:20,845  INFO PopulationImpl:107  person # 16
2026-06-18T12:15:20,857  INFO PopulationImpl:107  person # 64
2026-06-18T12:15:20,888  INFO PopulationImpl:107  person # 256
2026-06-18T12:15:20,942  INFO PopulationImpl:107  person # 1024
2026-06-18T12:15:21,072  INFO PopulationImpl:107  person # 4096
2026-06-18T12:15:21,087  INFO PopulationUtils:1078  person # 4523
2026-06-18T12:15:21,088  INFO ScenarioLoaderImpl:244 no person-attributes file set in config, not loading any person attributes
2026-06-18T12:15:21,088  INFO ScenarioLoaderImpl:258 no households file set in config, not loading households
2026-06-18T12:15:21,089  INFO ScenarioLoaderImpl:276 no household-attributes file set in config, not loading any household attributes
2026-06-18T12:15:21,089  INFO ScenarioLoaderImpl:290 no transit schedule file set in config, not loading any transit schedule
2026-06-18T12:15:21,089  INFO ScenarioLoaderImpl:331 no transit vehicles file set in config, not loading any transit vehicles
2026-06-18T12:15:21,117  INFO VspConfigConsistencyCheckerImpl:61 NOT running vsp config consistency check because vsp defaults checking level is set to IGNORE
2026-06-18T12:15:22,634  INFO DvrpGlobalRoutingNetworkProvider:66 DVRP global routing network unfiltered: #nodes=4477 #links:10729
2026-06-18T12:15:22,639  INFO NetworkImpl:165  node # 1
2026-06-18T12:15:22,640  INFO NetworkImpl:165  node # 4
2026-06-18T12:15:22,641  INFO NetworkImpl:165  node # 16
2026-06-18T12:15:22,642  INFO NetworkImpl:165  node # 64
2026-06-18T12:15:22,643  INFO NetworkImpl:165  node # 256
2026-06-18T12:15:22,646  INFO NetworkImpl:165  node # 1024
2026-06-18T12:15:22,650  INFO NetworkImpl:165  node # 4096
2026-06-18T12:15:22,653  INFO NetworkImpl:161  link # 1
2026-06-18T12:15:22,654  INFO NetworkImpl:161  link # 4
2026-06-18T12:15:22,654  INFO NetworkImpl:161  link # 16
2026-06-18T12:15:22,656  INFO NetworkImpl:161  link # 64
2026-06-18T12:15:22,659  INFO NetworkImpl:161  link # 256
2026-06-18T12:15:22,666  INFO NetworkImpl:161  link # 1024
2026-06-18T12:15:22,681  INFO NetworkImpl:161  link # 4096
2026-06-18T12:15:22,713  INFO DvrpGlobalRoutingNetworkProvider:66 DVRP global routing network filtered: #nodes=4415 #links:10599
2026-06-18T12:15:22,720  INFO SimStepParallelEventsManagerImpl:80 number of threads=1
2026-06-18T12:15:22,729  INFO EventsManagerImpl:138 adding Event-Handler: org.matsim.core.trafficmonitoring.TravelTimeCalculator
2026-06-18T12:15:22,730  INFO EventsManagerImpl:144   org.matsim.api.core.v01.events.handler.LinkEnterEventHandler
2026-06-18T12:15:22,731  INFO EventsManagerImpl:205     > org.matsim.api.core.v01.events.LinkEnterEvent
2026-06-18T12:15:22,733  INFO EventsManagerImpl:144   org.matsim.api.core.v01.events.handler.LinkLeaveEventHandler
2026-06-18T12:15:22,734  INFO EventsManagerImpl:205     > org.matsim.api.core.v01.events.LinkLeaveEvent
2026-06-18T12:15:22,734  INFO EventsManagerImpl:144   org.matsim.api.core.v01.events.handler.VehicleEntersTrafficEventHandler
2026-06-18T12:15:22,734  INFO EventsManagerImpl:205     > org.matsim.api.core.v01.events.VehicleEntersTrafficEvent
2026-06-18T12:15:22,735  INFO EventsManagerImpl:144   org.matsim.api.core.v01.events.handler.VehicleLeavesTrafficEventHandler
2026-06-18T12:15:22,735  INFO EventsManagerImpl:205     > org.matsim.api.core.v01.events.VehicleLeavesTrafficEvent
2026-06-18T12:15:22,736  INFO EventsManagerImpl:144   org.matsim.core.api.experimental.events.handler.VehicleArrivesAtFacilityEventHandler
2026-06-18T12:15:22,736  INFO EventsManagerImpl:205     > org.matsim.core.api.experimental.events.VehicleArrivesAtFacilityEvent
2026-06-18T12:15:22,736  INFO EventsManagerImpl:144   org.matsim.api.core.v01.events.handler.VehicleAbortsEventHandler
2026-06-18T12:15:22,737  INFO EventsManagerImpl:205     > org.matsim.api.core.v01.events.VehicleAbortsEvent
2026-06-18T12:15:22,738  INFO EventsManagerImpl:154 
2026-06-18T12:15:22,738  INFO EventsManagerImpl:138 adding Event-Handler: org.matsim.core.trafficmonitoring.TravelTimeCalculator
2026-06-18T12:15:22,739  INFO EventsManagerImpl:144   org.matsim.api.core.v01.events.handler.LinkEnterEventHandler
2026-06-18T12:15:22,739  INFO EventsManagerImpl:205     > org.matsim.api.core.v01.events.LinkEnterEvent
2026-06-18T12:15:22,740  INFO EventsManagerImpl:144   org.matsim.api.core.v01.events.handler.LinkLeaveEventHandler
2026-06-18T12:15:22,741  INFO EventsManagerImpl:205     > org.matsim.api.core.v01.events.LinkLeaveEvent
2026-06-18T12:15:22,742  INFO EventsManagerImpl:144   org.matsim.api.core.v01.events.handler.VehicleEntersTrafficEventHandler
2026-06-18T12:15:22,743  INFO EventsManagerImpl:205     > org.matsim.api.core.v01.events.VehicleEntersTrafficEvent
2026-06-18T12:15:22,744  INFO EventsManagerImpl:144   org.matsim.api.core.v01.events.handler.VehicleLeavesTrafficEventHandler
2026-06-18T12:15:22,744  INFO EventsManagerImpl:205     > org.matsim.api.core.v01.events.VehicleLeavesTrafficEvent
2026-06-18T12:15:22,745  INFO EventsManagerImpl:144   org.matsim.core.api.experimental.events.handler.VehicleArrivesAtFacilityEventHandler
2026-06-18T12:15:22,746  INFO EventsManagerImpl:205     > org.matsim.core.api.experimental.events.VehicleArrivesAtFacilityEvent
2026-06-18T12:15:22,746  INFO EventsManagerImpl:144   org.matsim.api.core.v01.events.handler.VehicleAbortsEventHandler
2026-06-18T12:15:22,747  INFO EventsManagerImpl:205     > org.matsim.api.core.v01.events.VehicleAbortsEvent
2026-06-18T12:15:22,748  INFO EventsManagerImpl:154 
2026-06-18T12:15:22,797  INFO MatsimXmlParser:165 starting to parse xml from url file:/D:/Study/TUB/So2026/ITS/GroupAssignment/ITS-Homework2/Assignment_2/Task3-Cottbus/drt-vehicles/fleet-size-250.xml ...
2026-06-18T12:15:22,834  INFO MatsimXmlParser:281 Trying to load http://matsim.org/files/dtd/dvrp_vehicles_v1.dtd. In some cases (e.g. network interface up but no connection), this may take a bit.
2026-06-18T12:15:22,908  INFO DrtGridUtils:50 start creating grid from network
2026-06-18T12:15:22,931  INFO DrtGridUtils:72 finished creating grid from network
2026-06-18T12:15:23,131  INFO SpeedyALTData:51 find dead ends...
2026-06-18T12:15:23,179  INFO SpeedyALTData:132 calculate landmarks...
2026-06-18T12:15:23,312  INFO SpeedyALTData:173 calculate min travelcost...
2026-06-18T12:15:23,338  INFO StrategyManager:77 global innovation switch off after iteration: 0
2026-06-18T12:15:23,344  INFO GenericStrategyManagerImpl:330 added change request:  iteration=1 newWeight=0.0 strategy=RandomPlanSelector_TimeAllocationMutatorModule
2026-06-18T12:15:23,345  INFO GenericStrategyManagerImpl:362 setting PlanSelectorForRemoval to class org.matsim.core.replanning.selectors.WorstPlanForRemovalSelector
2026-06-18T12:15:23,348  INFO EventsManagerImpl:138 adding Event-Handler: org.matsim.core.scoring.ScoringFunctionsForPopulation
2026-06-18T12:15:23,348  INFO EventsManagerImpl:144   org.matsim.core.events.handler.BasicEventHandler
2026-06-18T12:15:23,349  INFO EventsManagerImpl:205     > org.matsim.api.core.v01.events.Event
2026-06-18T12:15:23,349  INFO EventsManagerImpl:154 
2026-06-18T12:15:23,350  INFO EventsManagerImpl:138 adding Event-Handler: org.matsim.core.scoring.ScoringFunctionsForPopulation
2026-06-18T12:15:23,350  INFO EventsManagerImpl:144   org.matsim.core.events.handler.BasicEventHandler
2026-06-18T12:15:23,350  INFO EventsManagerImpl:205     > org.matsim.api.core.v01.events.Event
2026-06-18T12:15:23,351  INFO EventsManagerImpl:154 
2026-06-18T12:15:23,356  INFO CalcLinkStats:151  resetting `count' to zero.  This info is here since we want to check when this is happening during normal simulation runs.  kai, jan'11
2026-06-18T12:15:23,373  INFO EventsManagerImpl:138 adding Event-Handler: org.matsim.analysis.VolumesAnalyzer
2026-06-18T12:15:23,374  INFO EventsManagerImpl:144   org.matsim.api.core.v01.events.handler.LinkLeaveEventHandler
2026-06-18T12:15:23,374  INFO EventsManagerImpl:205     > org.matsim.api.core.v01.events.LinkLeaveEvent
2026-06-18T12:15:23,374  INFO EventsManagerImpl:144   org.matsim.api.core.v01.events.handler.VehicleEntersTrafficEventHandler
2026-06-18T12:15:23,375  INFO EventsManagerImpl:205     > org.matsim.api.core.v01.events.VehicleEntersTrafficEvent
2026-06-18T12:15:23,375  INFO EventsManagerImpl:154 
2026-06-18T12:15:23,376  INFO EventsManagerImpl:138 adding Event-Handler: org.matsim.analysis.VolumesAnalyzer
2026-06-18T12:15:23,376  INFO EventsManagerImpl:144   org.matsim.api.core.v01.events.handler.LinkLeaveEventHandler
2026-06-18T12:15:23,376  INFO EventsManagerImpl:205     > org.matsim.api.core.v01.events.LinkLeaveEvent
2026-06-18T12:15:23,377  INFO EventsManagerImpl:144   org.matsim.api.core.v01.events.handler.VehicleEntersTrafficEventHandler
2026-06-18T12:15:23,378  INFO EventsManagerImpl:205     > org.matsim.api.core.v01.events.VehicleEntersTrafficEvent
2026-06-18T12:15:23,379  INFO EventsManagerImpl:154 
2026-06-18T12:15:23,380  INFO EventsManagerImpl:138 adding Event-Handler: org.matsim.analysis.LegHistogram
2026-06-18T12:15:23,381  INFO EventsManagerImpl:144   org.matsim.api.core.v01.events.handler.PersonDepartureEventHandler
2026-06-18T12:15:23,383  INFO EventsManagerImpl:205     > org.matsim.api.core.v01.events.PersonDepartureEvent
2026-06-18T12:15:23,383  INFO EventsManagerImpl:144   org.matsim.api.core.v01.events.handler.PersonArrivalEventHandler
2026-06-18T12:15:23,384  INFO EventsManagerImpl:205     > org.matsim.api.core.v01.events.PersonArrivalEvent
2026-06-18T12:15:23,385  INFO EventsManagerImpl:144   org.matsim.api.core.v01.events.handler.PersonStuckEventHandler
2026-06-18T12:15:23,385  INFO EventsManagerImpl:205     > org.matsim.api.core.v01.events.PersonStuckEvent
2026-06-18T12:15:23,385  INFO EventsManagerImpl:154 
2026-06-18T12:15:23,386  INFO EventsManagerImpl:138 adding Event-Handler: org.matsim.analysis.LegHistogram
2026-06-18T12:15:23,387  INFO EventsManagerImpl:144   org.matsim.api.core.v01.events.handler.PersonDepartureEventHandler
2026-06-18T12:15:23,387  INFO EventsManagerImpl:205     > org.matsim.api.core.v01.events.PersonDepartureEvent
2026-06-18T12:15:23,387  INFO EventsManagerImpl:144   org.matsim.api.core.v01.events.handler.PersonArrivalEventHandler
2026-06-18T12:15:23,387  INFO EventsManagerImpl:205     > org.matsim.api.core.v01.events.PersonArrivalEvent
2026-06-18T12:15:23,388  INFO EventsManagerImpl:144   org.matsim.api.core.v01.events.handler.PersonStuckEventHandler
2026-06-18T12:15:23,388  INFO EventsManagerImpl:205     > org.matsim.api.core.v01.events.PersonStuckEvent
2026-06-18T12:15:23,388  INFO EventsManagerImpl:154 
2026-06-18T12:15:23,390  INFO EventsManagerImpl:138 adding Event-Handler: org.matsim.analysis.CalcLegTimes
2026-06-18T12:15:23,391  INFO EventsManagerImpl:144   org.matsim.api.core.v01.events.handler.PersonDepartureEventHandler
2026-06-18T12:15:23,391  INFO EventsManagerImpl:205     > org.matsim.api.core.v01.events.PersonDepartureEvent
2026-06-18T12:15:23,391  INFO EventsManagerImpl:144   org.matsim.api.core.v01.events.handler.PersonArrivalEventHandler
2026-06-18T12:15:23,392  INFO EventsManagerImpl:205     > org.matsim.api.core.v01.events.PersonArrivalEvent
2026-06-18T12:15:23,392  INFO EventsManagerImpl:144   org.matsim.api.core.v01.events.handler.ActivityEndEventHandler
2026-06-18T12:15:23,392  INFO EventsManagerImpl:205     > org.matsim.api.core.v01.events.ActivityEndEvent
2026-06-18T12:15:23,393  INFO EventsManagerImpl:144   org.matsim.api.core.v01.events.handler.ActivityStartEventHandler
2026-06-18T12:15:23,393  INFO EventsManagerImpl:205     > org.matsim.api.core.v01.events.ActivityStartEvent
2026-06-18T12:15:23,393  INFO EventsManagerImpl:154 
2026-06-18T12:15:23,393  INFO EventsManagerImpl:138 adding Event-Handler: org.matsim.analysis.CalcLegTimes
2026-06-18T12:15:23,394  INFO EventsManagerImpl:144   org.matsim.api.core.v01.events.handler.PersonDepartureEventHandler
2026-06-18T12:15:23,394  INFO EventsManagerImpl:205     > org.matsim.api.core.v01.events.PersonDepartureEvent
2026-06-18T12:15:23,395  INFO EventsManagerImpl:144   org.matsim.api.core.v01.events.handler.PersonArrivalEventHandler
2026-06-18T12:15:23,396  INFO EventsManagerImpl:205     > org.matsim.api.core.v01.events.PersonArrivalEvent
2026-06-18T12:15:23,396  INFO EventsManagerImpl:144   org.matsim.api.core.v01.events.handler.ActivityEndEventHandler
2026-06-18T12:15:23,397  INFO EventsManagerImpl:205     > org.matsim.api.core.v01.events.ActivityEndEvent
2026-06-18T12:15:23,397  INFO EventsManagerImpl:144   org.matsim.api.core.v01.events.handler.ActivityStartEventHandler
2026-06-18T12:15:23,398  INFO EventsManagerImpl:205     > org.matsim.api.core.v01.events.ActivityStartEvent
2026-06-18T12:15:23,398  INFO EventsManagerImpl:154 
2026-06-18T12:15:23,405  INFO AbstractController:55 Used Controler-Class: org.matsim.core.controler.NewControler
2026-06-18T12:15:23,406  INFO Config:511 ConfigConsistencyChecker with runtime type=class org.matsim.core.config.consistency.ConfigConsistencyCheckerImpl was already added; not adding it a second time
2026-06-18T12:15:23,407  INFO EventsManagerImpl:138 adding Event-Handler: org.matsim.contrib.drt.analysis.zonal.ZonalIdleVehicleXYVisualiser
2026-06-18T12:15:23,408  INFO EventsManagerImpl:144   org.matsim.contrib.dvrp.vrpagent.TaskStartedEventHandler
2026-06-18T12:15:23,409  INFO EventsManagerImpl:205     > org.matsim.contrib.dvrp.vrpagent.TaskStartedEvent
2026-06-18T12:15:23,409  INFO EventsManagerImpl:144   org.matsim.contrib.dvrp.vrpagent.TaskEndedEventHandler
2026-06-18T12:15:23,410  INFO EventsManagerImpl:205     > org.matsim.contrib.dvrp.vrpagent.TaskEndedEvent
2026-06-18T12:15:23,410  INFO EventsManagerImpl:154 
2026-06-18T12:15:23,411  INFO EventsManagerImpl:138 adding Event-Handler: org.matsim.contrib.drt.analysis.zonal.ZonalIdleVehicleXYVisualiser
2026-06-18T12:15:23,412  INFO EventsManagerImpl:144   org.matsim.contrib.dvrp.vrpagent.TaskStartedEventHandler
2026-06-18T12:15:23,412  INFO EventsManagerImpl:205     > org.matsim.contrib.dvrp.vrpagent.TaskStartedEvent
2026-06-18T12:15:23,414  INFO EventsManagerImpl:144   org.matsim.contrib.dvrp.vrpagent.TaskEndedEventHandler
2026-06-18T12:15:23,414  INFO EventsManagerImpl:205     > org.matsim.contrib.dvrp.vrpagent.TaskEndedEvent
2026-06-18T12:15:23,414  INFO EventsManagerImpl:154 
2026-06-18T12:15:23,415  INFO EventsManagerImpl:138 adding Event-Handler: org.matsim.contrib.drt.optimizer.rebalancing.demandestimator.PreviousIterationDRTDemandEstimator
2026-06-18T12:15:23,415  INFO EventsManagerImpl:144   org.matsim.api.core.v01.events.handler.PersonDepartureEventHandler
2026-06-18T12:15:23,415  INFO EventsManagerImpl:205     > org.matsim.api.core.v01.events.PersonDepartureEvent
2026-06-18T12:15:23,416  INFO EventsManagerImpl:154 
2026-06-18T12:15:23,416  INFO EventsManagerImpl:138 adding Event-Handler: org.matsim.contrib.drt.optimizer.rebalancing.demandestimator.PreviousIterationDRTDemandEstimator
2026-06-18T12:15:23,417  INFO EventsManagerImpl:144   org.matsim.api.core.v01.events.handler.PersonDepartureEventHandler
2026-06-18T12:15:23,417  INFO EventsManagerImpl:205     > org.matsim.api.core.v01.events.PersonDepartureEvent
2026-06-18T12:15:23,417  INFO EventsManagerImpl:154 
2026-06-18T12:15:23,419  INFO EventsManagerImpl:138 adding Event-Handler: org.matsim.contrib.drt.fare.DrtFareHandler
2026-06-18T12:15:23,419  INFO EventsManagerImpl:144   org.matsim.contrib.drt.passenger.events.DrtRequestSubmittedEventHandler
2026-06-18T12:15:23,432  INFO EventsManagerImpl:205     > org.matsim.contrib.drt.passenger.events.DrtRequestSubmittedEvent
2026-06-18T12:15:23,434  INFO EventsManagerImpl:144   org.matsim.contrib.dvrp.passenger.PassengerDroppedOffEventHandler
2026-06-18T12:15:23,435  INFO EventsManagerImpl:205     > org.matsim.contrib.dvrp.passenger.PassengerDroppedOffEvent
2026-06-18T12:15:23,435  INFO EventsManagerImpl:154 
2026-06-18T12:15:23,436  INFO EventsManagerImpl:138 adding Event-Handler: org.matsim.contrib.drt.fare.DrtFareHandler
2026-06-18T12:15:23,436  INFO EventsManagerImpl:144   org.matsim.contrib.drt.passenger.events.DrtRequestSubmittedEventHandler
2026-06-18T12:15:23,437  INFO EventsManagerImpl:205     > org.matsim.contrib.drt.passenger.events.DrtRequestSubmittedEvent
2026-06-18T12:15:23,437  INFO EventsManagerImpl:144   org.matsim.contrib.dvrp.passenger.PassengerDroppedOffEventHandler
2026-06-18T12:15:23,438  INFO EventsManagerImpl:205     > org.matsim.contrib.dvrp.passenger.PassengerDroppedOffEvent
2026-06-18T12:15:23,438  INFO EventsManagerImpl:154 
2026-06-18T12:15:23,439  INFO EventsManagerImpl:138 adding Event-Handler: org.matsim.contrib.dvrp.analysis.ExecutedScheduleCollector
2026-06-18T12:15:23,440  INFO EventsManagerImpl:144   org.matsim.contrib.dvrp.vrpagent.TaskStartedEventHandler
2026-06-18T12:15:23,441  INFO EventsManagerImpl:205     > org.matsim.contrib.dvrp.vrpagent.TaskStartedEvent
2026-06-18T12:15:23,441  INFO EventsManagerImpl:144   org.matsim.contrib.dvrp.vrpagent.TaskEndedEventHandler
2026-06-18T12:15:23,442  INFO EventsManagerImpl:205     > org.matsim.contrib.dvrp.vrpagent.TaskEndedEvent
2026-06-18T12:15:23,442  INFO EventsManagerImpl:154 
2026-06-18T12:15:23,442  INFO EventsManagerImpl:138 adding Event-Handler: org.matsim.contrib.dvrp.analysis.ExecutedScheduleCollector
2026-06-18T12:15:23,442  INFO EventsManagerImpl:144   org.matsim.contrib.dvrp.vrpagent.TaskStartedEventHandler
2026-06-18T12:15:23,444  INFO EventsManagerImpl:205     > org.matsim.contrib.dvrp.vrpagent.TaskStartedEvent
2026-06-18T12:15:23,444  INFO EventsManagerImpl:144   org.matsim.contrib.dvrp.vrpagent.TaskEndedEventHandler
2026-06-18T12:15:23,445  INFO EventsManagerImpl:205     > org.matsim.contrib.dvrp.vrpagent.TaskEndedEvent
2026-06-18T12:15:23,445  INFO EventsManagerImpl:154 
2026-06-18T12:15:23,446  INFO EventsManagerImpl:138 adding Event-Handler: org.matsim.contrib.drt.analysis.DrtVehicleDistanceStats
2026-06-18T12:15:23,446  INFO EventsManagerImpl:144   org.matsim.contrib.dvrp.passenger.PassengerPickedUpEventHandler
2026-06-18T12:15:23,447  INFO EventsManagerImpl:205     > org.matsim.contrib.dvrp.passenger.PassengerPickedUpEvent
2026-06-18T12:15:23,448  INFO EventsManagerImpl:144   org.matsim.api.core.v01.events.handler.LinkEnterEventHandler
2026-06-18T12:15:23,449  INFO EventsManagerImpl:205     > org.matsim.api.core.v01.events.LinkEnterEvent
2026-06-18T12:15:23,449  INFO EventsManagerImpl:144   org.matsim.contrib.dvrp.passenger.PassengerDroppedOffEventHandler
2026-06-18T12:15:23,450  INFO EventsManagerImpl:205     > org.matsim.contrib.dvrp.passenger.PassengerDroppedOffEvent
2026-06-18T12:15:23,450  INFO EventsManagerImpl:144   org.matsim.core.api.experimental.events.handler.TeleportationArrivalEventHandler
2026-06-18T12:15:23,451  INFO EventsManagerImpl:205     > org.matsim.core.api.experimental.events.TeleportationArrivalEvent
2026-06-18T12:15:23,452  INFO EventsManagerImpl:154 
2026-06-18T12:15:23,452  INFO EventsManagerImpl:138 adding Event-Handler: org.matsim.contrib.drt.analysis.DrtVehicleDistanceStats
2026-06-18T12:15:23,454  INFO EventsManagerImpl:144   org.matsim.contrib.dvrp.passenger.PassengerPickedUpEventHandler
2026-06-18T12:15:23,454  INFO EventsManagerImpl:205     > org.matsim.contrib.dvrp.passenger.PassengerPickedUpEvent
2026-06-18T12:15:23,455  INFO EventsManagerImpl:144   org.matsim.api.core.v01.events.handler.LinkEnterEventHandler
2026-06-18T12:15:23,455  INFO EventsManagerImpl:205     > org.matsim.api.core.v01.events.LinkEnterEvent
2026-06-18T12:15:23,456  INFO EventsManagerImpl:144   org.matsim.contrib.dvrp.passenger.PassengerDroppedOffEventHandler
2026-06-18T12:15:23,456  INFO EventsManagerImpl:205     > org.matsim.contrib.dvrp.passenger.PassengerDroppedOffEvent
2026-06-18T12:15:23,456  INFO EventsManagerImpl:144   org.matsim.core.api.experimental.events.handler.TeleportationArrivalEventHandler
2026-06-18T12:15:23,457  INFO EventsManagerImpl:205     > org.matsim.core.api.experimental.events.TeleportationArrivalEvent
2026-06-18T12:15:23,457  INFO EventsManagerImpl:154 
2026-06-18T12:15:23,457  INFO EventsManagerImpl:138 adding Event-Handler: org.matsim.contrib.drt.analysis.DrtEventSequenceCollector
2026-06-18T12:15:23,458  INFO EventsManagerImpl:144   org.matsim.contrib.dvrp.passenger.PassengerRequestRejectedEventHandler
2026-06-18T12:15:23,458  INFO EventsManagerImpl:205     > org.matsim.contrib.dvrp.passenger.PassengerRequestRejectedEvent
2026-06-18T12:15:23,459  INFO EventsManagerImpl:144   org.matsim.contrib.dvrp.passenger.PassengerRequestScheduledEventHandler
2026-06-18T12:15:23,462  INFO EventsManagerImpl:205     > org.matsim.contrib.dvrp.passenger.PassengerRequestScheduledEvent
2026-06-18T12:15:23,464  INFO EventsManagerImpl:144   org.matsim.contrib.drt.passenger.events.DrtRequestSubmittedEventHandler
2026-06-18T12:15:23,465  INFO EventsManagerImpl:205     > org.matsim.contrib.drt.passenger.events.DrtRequestSubmittedEvent
2026-06-18T12:15:23,466  INFO EventsManagerImpl:144   org.matsim.contrib.dvrp.passenger.PassengerPickedUpEventHandler
2026-06-18T12:15:23,467  INFO EventsManagerImpl:205     > org.matsim.contrib.dvrp.passenger.PassengerPickedUpEvent
2026-06-18T12:15:23,467  INFO EventsManagerImpl:144   org.matsim.contrib.dvrp.passenger.PassengerDroppedOffEventHandler
2026-06-18T12:15:23,468  INFO EventsManagerImpl:205     > org.matsim.contrib.dvrp.passenger.PassengerDroppedOffEvent
2026-06-18T12:15:23,468  INFO EventsManagerImpl:144   org.matsim.api.core.v01.events.handler.PersonMoneyEventHandler
2026-06-18T12:15:23,468  INFO EventsManagerImpl:205     > org.matsim.api.core.v01.events.PersonMoneyEvent
2026-06-18T12:15:23,468  INFO EventsManagerImpl:144   org.matsim.api.core.v01.events.handler.PersonDepartureEventHandler
2026-06-18T12:15:23,468  INFO EventsManagerImpl:205     > org.matsim.api.core.v01.events.PersonDepartureEvent
2026-06-18T12:15:23,469  INFO EventsManagerImpl:154 
2026-06-18T12:15:23,469  INFO EventsManagerImpl:138 adding Event-Handler: org.matsim.contrib.drt.analysis.DrtEventSequenceCollector
2026-06-18T12:15:23,470  INFO EventsManagerImpl:144   org.matsim.contrib.dvrp.passenger.PassengerRequestRejectedEventHandler
2026-06-18T12:15:23,470  INFO EventsManagerImpl:205     > org.matsim.contrib.dvrp.passenger.PassengerRequestRejectedEvent
2026-06-18T12:15:23,471  INFO EventsManagerImpl:144   org.matsim.contrib.dvrp.passenger.PassengerRequestScheduledEventHandler
2026-06-18T12:15:23,471  INFO EventsManagerImpl:205     > org.matsim.contrib.dvrp.passenger.PassengerRequestScheduledEvent
2026-06-18T12:15:23,471  INFO EventsManagerImpl:144   org.matsim.contrib.drt.passenger.events.DrtRequestSubmittedEventHandler
2026-06-18T12:15:23,471  INFO EventsManagerImpl:205     > org.matsim.contrib.drt.passenger.events.DrtRequestSubmittedEvent
2026-06-18T12:15:23,471  INFO EventsManagerImpl:144   org.matsim.contrib.dvrp.passenger.PassengerPickedUpEventHandler
2026-06-18T12:15:23,472  INFO EventsManagerImpl:205     > org.matsim.contrib.dvrp.passenger.PassengerPickedUpEvent
2026-06-18T12:15:23,472  INFO EventsManagerImpl:144   org.matsim.contrib.dvrp.passenger.PassengerDroppedOffEventHandler
2026-06-18T12:15:23,473  INFO EventsManagerImpl:205     > org.matsim.contrib.dvrp.passenger.PassengerDroppedOffEvent
2026-06-18T12:15:23,475  INFO EventsManagerImpl:144   org.matsim.api.core.v01.events.handler.PersonMoneyEventHandler
2026-06-18T12:15:23,476  INFO EventsManagerImpl:205     > org.matsim.api.core.v01.events.PersonMoneyEvent
2026-06-18T12:15:23,478  INFO EventsManagerImpl:144   org.matsim.api.core.v01.events.handler.PersonDepartureEventHandler
2026-06-18T12:15:23,479  INFO EventsManagerImpl:205     > org.matsim.api.core.v01.events.PersonDepartureEvent
2026-06-18T12:15:23,479  INFO EventsManagerImpl:154 
2026-06-18T12:15:23,479  INFO EventsManagerImpl:138 adding Event-Handler: org.matsim.contrib.dvrp.analysis.VehicleOccupancyProfileCalculator
2026-06-18T12:15:23,481  INFO EventsManagerImpl:144   org.matsim.api.core.v01.events.handler.PersonEntersVehicleEventHandler
2026-06-18T12:15:23,481  INFO EventsManagerImpl:205     > org.matsim.api.core.v01.events.PersonEntersVehicleEvent
2026-06-18T12:15:23,482  INFO EventsManagerImpl:144   org.matsim.api.core.v01.events.handler.PersonLeavesVehicleEventHandler
2026-06-18T12:15:23,482  INFO EventsManagerImpl:205     > org.matsim.api.core.v01.events.PersonLeavesVehicleEvent
2026-06-18T12:15:23,482  INFO EventsManagerImpl:144   org.matsim.contrib.dvrp.vrpagent.TaskStartedEventHandler
2026-06-18T12:15:23,482  INFO EventsManagerImpl:205     > org.matsim.contrib.dvrp.vrpagent.TaskStartedEvent
2026-06-18T12:15:23,482  INFO EventsManagerImpl:144   org.matsim.contrib.dvrp.vrpagent.TaskEndedEventHandler
2026-06-18T12:15:23,483  INFO EventsManagerImpl:205     > org.matsim.contrib.dvrp.vrpagent.TaskEndedEvent
2026-06-18T12:15:23,483  INFO EventsManagerImpl:154 
2026-06-18T12:15:23,483  INFO EventsManagerImpl:138 adding Event-Handler: org.matsim.contrib.dvrp.analysis.VehicleOccupancyProfileCalculator
2026-06-18T12:15:23,483  INFO EventsManagerImpl:144   org.matsim.api.core.v01.events.handler.PersonEntersVehicleEventHandler
2026-06-18T12:15:23,483  INFO EventsManagerImpl:205     > org.matsim.api.core.v01.events.PersonEntersVehicleEvent
2026-06-18T12:15:23,484  INFO EventsManagerImpl:144   org.matsim.api.core.v01.events.handler.PersonLeavesVehicleEventHandler
2026-06-18T12:15:23,484  INFO EventsManagerImpl:205     > org.matsim.api.core.v01.events.PersonLeavesVehicleEvent
2026-06-18T12:15:23,484  INFO EventsManagerImpl:144   org.matsim.contrib.dvrp.vrpagent.TaskStartedEventHandler
2026-06-18T12:15:23,485  INFO EventsManagerImpl:205     > org.matsim.contrib.dvrp.vrpagent.TaskStartedEvent
2026-06-18T12:15:23,485  INFO EventsManagerImpl:144   org.matsim.contrib.dvrp.vrpagent.TaskEndedEventHandler
2026-06-18T12:15:23,485  INFO EventsManagerImpl:205     > org.matsim.contrib.dvrp.vrpagent.TaskEndedEvent
2026-06-18T12:15:23,486  INFO EventsManagerImpl:154 
2026-06-18T12:15:23,486  INFO EventsManagerImpl:138 adding Event-Handler: org.matsim.contrib.dvrp.analysis.VehicleTaskProfileCalculator
2026-06-18T12:15:23,486  INFO EventsManagerImpl:144   org.matsim.contrib.dvrp.vrpagent.TaskStartedEventHandler
2026-06-18T12:15:23,486  INFO EventsManagerImpl:205     > org.matsim.contrib.dvrp.vrpagent.TaskStartedEvent
2026-06-18T12:15:23,487  INFO EventsManagerImpl:144   org.matsim.contrib.dvrp.vrpagent.TaskEndedEventHandler
2026-06-18T12:15:23,487  INFO EventsManagerImpl:205     > org.matsim.contrib.dvrp.vrpagent.TaskEndedEvent
2026-06-18T12:15:23,487  INFO EventsManagerImpl:154 
2026-06-18T12:15:23,488  INFO EventsManagerImpl:138 adding Event-Handler: org.matsim.contrib.dvrp.analysis.VehicleTaskProfileCalculator
2026-06-18T12:15:23,488  INFO EventsManagerImpl:144   org.matsim.contrib.dvrp.vrpagent.TaskStartedEventHandler
2026-06-18T12:15:23,488  INFO EventsManagerImpl:205     > org.matsim.contrib.dvrp.vrpagent.TaskStartedEvent
2026-06-18T12:15:23,488  INFO EventsManagerImpl:144   org.matsim.contrib.dvrp.vrpagent.TaskEndedEventHandler
2026-06-18T12:15:23,489  INFO EventsManagerImpl:205     > org.matsim.contrib.dvrp.vrpagent.TaskEndedEvent
2026-06-18T12:15:23,489  INFO EventsManagerImpl:154 
2026-06-18T12:15:23,490  INFO Injector:81 === printInjector start ===
2026-06-18T12:15:23,491  INFO Injector:85 org.matsim.core.mobsim.qsim.components.QSimComponentsConfig 
2026-06-18T12:15:23,492  INFO Injector:86   --> provider: ConstantFactory{value=org.matsim.core.mobsim.qsim.components.QSimComponentsConfig@3234474}[Scopes.SINGLETON]
2026-06-18T12:15:23,493  INFO Injector:87   --> source: org.matsim.core.controler.Controler$10.install(Controler.java:518)
2026-06-18T12:15:23,494  INFO Injector:89   --> scope: eager singleton
2026-06-18T12:15:23,494  INFO Injector:94   ==full==> InstanceBinding{key=Key[type=org.matsim.core.mobsim.qsim.components.QSimComponentsConfig, annotation=[none]], source=org.matsim.core.controler.Controler$10.install(Controler.java:518), instance=org.matsim.core.mobsim.qsim.components.QSimComponentsConfig@3234474}
2026-06-18T12:15:23,496  INFO Injector:96 
2026-06-18T12:15:23,496  INFO Injector:85 org.matsim.vis.otfvis.OnTheFlyServer$NonPlanAgentQueryHelper 
2026-06-18T12:15:23,497  INFO Injector:86   --> provider: FactoryProxy{key=Key[type=org.matsim.vis.otfvis.OnTheFlyServer$NonPlanAgentQueryHelper, annotation=[none]], provider=com.google.inject.internal.ConstructorBindingImpl$Factory@631cb129}
2026-06-18T12:15:23,497  INFO Injector:87   --> source: org.matsim.contrib.dvrp.run.DvrpModule.install(DvrpModule.java:68)
2026-06-18T12:15:23,498  INFO Injector:89   --> scope: Scopes.NO_SCOPE
2026-06-18T12:15:23,498  INFO Injector:92   --> target: Key[type=org.matsim.contrib.dvrp.vrpagent.VrpAgentQueryHelper, annotation=[none]]
2026-06-18T12:15:23,499  INFO Injector:94   ==full==> LinkedKeyBinding{key=Key[type=org.matsim.vis.otfvis.OnTheFlyServer$NonPlanAgentQueryHelper, annotation=[none]], source=org.matsim.contrib.dvrp.run.DvrpModule.install(DvrpModule.java:68), scope=Scopes.NO_SCOPE, target=Key[type=org.matsim.contrib.dvrp.vrpagent.VrpAgentQueryHelper, annotation=[none]]}
2026-06-18T12:15:23,499  INFO Injector:96 
2026-06-18T12:15:23,499  INFO Injector:85 org.matsim.core.router.util.TravelTime @com.google.inject.name.Named("dvrp_initial")
2026-06-18T12:15:23,500  INFO Injector:86   --> provider: FactoryProxy{key=Key[type=org.matsim.core.router.util.TravelTime, annotation=@com.google.inject.name.Named("dvrp_initial")], provider=com.google.inject.internal.ConstructorBindingImpl$Factory@3d20e575}[Scopes.SINGLETON]
2026-06-18T12:15:23,500  INFO Injector:87   --> source: org.matsim.contrib.dvrp.trafficmonitoring.DvrpTravelTimeModule.install(DvrpTravelTimeModule.java:55)
2026-06-18T12:15:23,500  INFO Injector:89   --> scope: eager singleton
2026-06-18T12:15:23,501  INFO Injector:92   --> target: Key[type=org.matsim.contrib.dvrp.trafficmonitoring.QSimFreeSpeedTravelTime, annotation=[none]]
2026-06-18T12:15:23,501  INFO Injector:94   ==full==> LinkedKeyBinding{key=Key[type=org.matsim.core.router.util.TravelTime, annotation=@com.google.inject.name.Named("dvrp_initial")], source=org.matsim.contrib.dvrp.trafficmonitoring.DvrpTravelTimeModule.install(DvrpTravelTimeModule.java:55), scope=eager singleton, target=Key[type=org.matsim.contrib.dvrp.trafficmonitoring.QSimFreeSpeedTravelTime, annotation=[none]]}
2026-06-18T12:15:23,501  INFO Injector:96 
2026-06-18T12:15:23,501  INFO Injector:85 org.matsim.core.router.util.TravelTime @com.google.inject.name.Named("dvrp_observed")
2026-06-18T12:15:23,501  INFO Injector:86   --> provider: FactoryProxy{key=Key[type=org.matsim.core.router.util.TravelTime, annotation=@com.google.inject.name.Named("dvrp_observed")], provider=org.matsim.core.trafficmonitoring.TravelTimeCalculatorModule$1@2938127d[Scopes.SINGLETON]}
2026-06-18T12:15:23,502  INFO Injector:87   --> source: org.matsim.contrib.dvrp.trafficmonitoring.DvrpTravelTimeModule.install(DvrpTravelTimeModule.java:58)
2026-06-18T12:15:23,502  INFO Injector:89   --> scope: Scopes.NO_SCOPE
2026-06-18T12:15:23,503  INFO Injector:92   --> target: Key[type=org.matsim.core.router.util.TravelTime, annotation=@com.google.inject.name.Named("car")]
2026-06-18T12:15:23,503  INFO Injector:94   ==full==> LinkedKeyBinding{key=Key[type=org.matsim.core.router.util.TravelTime, annotation=@com.google.inject.name.Named("dvrp_observed")], source=org.matsim.contrib.dvrp.trafficmonitoring.DvrpTravelTimeModule.install(DvrpTravelTimeModule.java:58), scope=Scopes.NO_SCOPE, target=Key[type=org.matsim.core.router.util.TravelTime, annotation=@com.google.inject.name.Named("car")]}
2026-06-18T12:15:23,503  INFO Injector:96 
2026-06-18T12:15:23,503  INFO Injector:85 org.matsim.core.router.util.TravelTime @com.google.inject.name.Named("dvrp_estimated")
2026-06-18T12:15:23,504  INFO Injector:86   --> provider: FactoryProxy{key=Key[type=org.matsim.core.router.util.TravelTime, annotation=@com.google.inject.name.Named("dvrp_estimated")], provider=FactoryProxy{key=Key[type=org.matsim.contrib.dvrp.trafficmonitoring.DvrpTravelTimeEstimator, annotation=[none]], provider=com.google.inject.internal.ConstructorBindingImpl$Factory@3252747e[Scopes.SINGLETON]}}
2026-06-18T12:15:23,504  INFO Injector:87   --> source: org.matsim.contrib.dvrp.trafficmonitoring.DvrpTravelTimeModule.install(DvrpTravelTimeModule.java:60)
2026-06-18T12:15:23,504  INFO Injector:89   --> scope: Scopes.NO_SCOPE
2026-06-18T12:15:23,505  INFO Injector:92   --> target: Key[type=org.matsim.contrib.dvrp.trafficmonitoring.DvrpTravelTimeEstimator, annotation=[none]]
2026-06-18T12:15:23,505  INFO Injector:94   ==full==> LinkedKeyBinding{key=Key[type=org.matsim.core.router.util.TravelTime, annotation=@com.google.inject.name.Named("dvrp_estimated")], source=org.matsim.contrib.dvrp.trafficmonitoring.DvrpTravelTimeModule.install(DvrpTravelTimeModule.java:60), scope=Scopes.NO_SCOPE, target=Key[type=org.matsim.contrib.dvrp.trafficmonitoring.DvrpTravelTimeEstimator, annotation=[none]]}
2026-06-18T12:15:23,505  INFO Injector:96 
2026-06-18T12:15:23,506  INFO Injector:85 org.matsim.core.mobsim.framework.listeners.MobsimListener @com.google.inject.internal.Element(setName=,uniqueId=186, type=MULTIBINDER, keyType=)
2026-06-18T12:15:23,506  INFO Injector:86   --> provider: FactoryProxy{key=Key[type=org.matsim.core.mobsim.framework.listeners.MobsimListener, annotation=@com.google.inject.internal.Element(setName=,uniqueId=186, type=MULTIBINDER, keyType=)], provider=com.google.inject.internal.ConstructorBindingImpl$Factory@3252747e[Scopes.SINGLETON]}
2026-06-18T12:15:23,506  INFO Injector:87   --> source: org.matsim.contrib.dvrp.trafficmonitoring.DvrpTravelTimeModule.install(DvrpTravelTimeModule.java:63)
2026-06-18T12:15:23,507  INFO Injector:89   --> scope: Scopes.NO_SCOPE
2026-06-18T12:15:23,507  INFO Injector:92   --> target: Key[type=org.matsim.contrib.dvrp.trafficmonitoring.DvrpOfflineTravelTimeEstimator, annotation=[none]]
2026-06-18T12:15:23,507  INFO Injector:94   ==full==> LinkedKeyBinding{key=Key[type=org.matsim.core.mobsim.framework.listeners.MobsimListener, annotation=@com.google.inject.internal.Element(setName=,uniqueId=186, type=MULTIBINDER, keyType=)], source=org.matsim.contrib.dvrp.trafficmonitoring.DvrpTravelTimeModule.install(DvrpTravelTimeModule.java:63), scope=Scopes.NO_SCOPE, target=Key[type=org.matsim.contrib.dvrp.trafficmonitoring.DvrpOfflineTravelTimeEstimator, annotation=[none]]}
2026-06-18T12:15:23,507  INFO Injector:96 
2026-06-18T12:15:23,508  INFO Injector:85 org.matsim.core.controler.listener.ControlerListener @com.google.inject.internal.Element(setName=,uniqueId=187, type=MULTIBINDER, keyType=)
2026-06-18T12:15:23,508  INFO Injector:86   --> provider: FactoryProxy{key=Key[type=org.matsim.core.controler.listener.ControlerListener, annotation=@com.google.inject.internal.Element(setName=,uniqueId=187, type=MULTIBINDER, keyType=)], provider=com.google.inject.internal.ConstructorBindingImpl$Factory@3252747e[Scopes.SINGLETON]}
2026-06-18T12:15:23,508  INFO Injector:87   --> source: org.matsim.contrib.dvrp.trafficmonitoring.DvrpTravelTimeModule.install(DvrpTravelTimeModule.java:64)
2026-06-18T12:15:23,509  INFO Injector:89   --> scope: Scopes.NO_SCOPE
2026-06-18T12:15:23,509  INFO Injector:92   --> target: Key[type=org.matsim.contrib.dvrp.trafficmonitoring.DvrpOfflineTravelTimeEstimator, annotation=[none]]
2026-06-18T12:15:23,509  INFO Injector:94   ==full==> LinkedKeyBinding{key=Key[type=org.matsim.core.controler.listener.ControlerListener, annotation=@com.google.inject.internal.Element(setName=,uniqueId=187, type=MULTIBINDER, keyType=)], source=org.matsim.contrib.dvrp.trafficmonitoring.DvrpTravelTimeModule.install(DvrpTravelTimeModule.java:64), scope=Scopes.NO_SCOPE, target=Key[type=org.matsim.contrib.dvrp.trafficmonitoring.DvrpOfflineTravelTimeEstimator, annotation=[none]]}
2026-06-18T12:15:23,509  INFO Injector:96 
2026-06-18T12:15:23,510  INFO Injector:85 org.matsim.contrib.dvrp.trafficmonitoring.DvrpTravelTimeEstimator 
2026-06-18T12:15:23,511  INFO Injector:86   --> provider: FactoryProxy{key=Key[type=org.matsim.contrib.dvrp.trafficmonitoring.DvrpTravelTimeEstimator, annotation=[none]], provider=com.google.inject.internal.ConstructorBindingImpl$Factory@3252747e[Scopes.SINGLETON]}
2026-06-18T12:15:23,511  INFO Injector:87   --> source: org.matsim.contrib.dvrp.trafficmonitoring.DvrpTravelTimeModule.install(DvrpTravelTimeModule.java:76)
2026-06-18T12:15:23,512  INFO Injector:89   --> scope: Scopes.NO_SCOPE
2026-06-18T12:15:23,512  INFO Injector:92   --> target: Key[type=org.matsim.contrib.dvrp.trafficmonitoring.DvrpOfflineTravelTimeEstimator, annotation=[none]]
2026-06-18T12:15:23,513  INFO Injector:94   ==full==> LinkedKeyBinding{key=Key[type=org.matsim.contrib.dvrp.trafficmonitoring.DvrpTravelTimeEstimator, annotation=[none]], source=org.matsim.contrib.dvrp.trafficmonitoring.DvrpTravelTimeModule.install(DvrpTravelTimeModule.java:76), scope=Scopes.NO_SCOPE, target=Key[type=org.matsim.contrib.dvrp.trafficmonitoring.DvrpOfflineTravelTimeEstimator, annotation=[none]]}
2026-06-18T12:15:23,513  INFO Injector:96 
2026-06-18T12:15:23,514  INFO Injector:85 org.matsim.contrib.zone.skims.TravelTimeMatrix 
2026-06-18T12:15:23,514  INFO Injector:86   --> provider: org.matsim.contrib.dvrp.run.DvrpModule$1@50fb33a[Scopes.SINGLETON]
2026-06-18T12:15:23,514  INFO Injector:87   --> source: org.matsim.contrib.dvrp.run.DvrpModule.install(DvrpModule.java:75)
2026-06-18T12:15:23,515  INFO Injector:89   --> scope: Scopes.SINGLETON
2026-06-18T12:15:23,515  INFO Injector:94   ==full==> ProviderInstanceBinding{key=Key[type=org.matsim.contrib.zone.skims.TravelTimeMatrix, annotation=[none]], source=org.matsim.contrib.dvrp.run.DvrpModule.install(DvrpModule.java:75), scope=Scopes.SINGLETON, provider=org.matsim.contrib.dvrp.run.DvrpModule$1@50fb33a}
2026-06-18T12:15:23,515  INFO Injector:96 
2026-06-18T12:15:23,516  INFO Injector:85 org.matsim.api.core.v01.network.Network @com.google.inject.name.Named("dvrp_routing")
2026-06-18T12:15:23,516  INFO Injector:86   --> provider: Key[type=org.matsim.contrib.dvrp.router.DvrpGlobalRoutingNetworkProvider, annotation=[none]][Scopes.SINGLETON]
2026-06-18T12:15:23,516  INFO Injector:87   --> source: org.matsim.contrib.dvrp.run.DvrpModule.install(DvrpModule.java:92)
2026-06-18T12:15:23,516  INFO Injector:89   --> scope: eager singleton
2026-06-18T12:15:23,517  INFO Injector:94   ==full==> ProviderKeyBinding{key=Key[type=org.matsim.api.core.v01.network.Network, annotation=@com.google.inject.name.Named("dvrp_routing")], source=org.matsim.contrib.dvrp.run.DvrpModule.install(DvrpModule.java:92), scope=eager singleton, provider=Key[type=org.matsim.contrib.dvrp.router.DvrpGlobalRoutingNetworkProvider, annotation=[none]]}
2026-06-18T12:15:23,517  INFO Injector:96 
2026-06-18T12:15:23,517  INFO Injector:85 org.matsim.core.mobsim.qsim.AbstractQSimModule @com.google.inject.internal.Element(setName=,uniqueId=188, type=MULTIBINDER, keyType=)
2026-06-18T12:15:23,517  INFO Injector:86   --> provider: ConstantFactory{value=org.matsim.contrib.dvrp.run.DvrpModule$2@6732726}[Scopes.SINGLETON]
2026-06-18T12:15:23,518  INFO Injector:87   --> source: org.matsim.contrib.dvrp.run.DvrpModule.install(DvrpModule.java:96)
2026-06-18T12:15:23,518  INFO Injector:89   --> scope: eager singleton
2026-06-18T12:15:23,518  INFO Injector:94   ==full==> InstanceBinding{key=Key[type=org.matsim.core.mobsim.qsim.AbstractQSimModule, annotation=@com.google.inject.internal.Element(setName=,uniqueId=188, type=MULTIBINDER, keyType=)], source=org.matsim.contrib.dvrp.run.DvrpModule.install(DvrpModule.java:96), instance=org.matsim.contrib.dvrp.run.DvrpModule$2@6732726}
2026-06-18T12:15:23,518  INFO Injector:96 
2026-06-18T12:15:23,519  INFO Injector:85 org.matsim.core.mobsim.qsim.AbstractQSimModule @com.google.inject.internal.Element(setName=,uniqueId=189, type=MULTIBINDER, keyType=)
2026-06-18T12:15:23,519  INFO Injector:86   --> provider: ConstantFactory{value=org.matsim.core.mobsim.qsim.PreplanningEngineQSimModule@474821de}[Scopes.SINGLETON]
2026-06-18T12:15:23,520  INFO Injector:87   --> source: org.matsim.contrib.dvrp.passenger.PassengerModule.install(PassengerModule.java:39)
2026-06-18T12:15:23,520  INFO Injector:89   --> scope: eager singleton
2026-06-18T12:15:23,520  INFO Injector:94   ==full==> InstanceBinding{key=Key[type=org.matsim.core.mobsim.qsim.AbstractQSimModule, annotation=@com.google.inject.internal.Element(setName=,uniqueId=189, type=MULTIBINDER, keyType=)], source=org.matsim.contrib.dvrp.passenger.PassengerModule.install(PassengerModule.java:39), instance=org.matsim.core.mobsim.qsim.PreplanningEngineQSimModule@474821de}
2026-06-18T12:15:23,521  INFO Injector:96 
2026-06-18T12:15:23,521  INFO Injector:85 org.matsim.contrib.dvrp.run.DvrpMode @com.google.inject.internal.Element(setName=,uniqueId=165, type=MULTIBINDER, keyType=)
2026-06-18T12:15:23,521  INFO Injector:86   --> provider: ConstantFactory{value=@org.matsim.contrib.dvrp.run.DvrpMode(value=drt)}[Scopes.SINGLETON]
2026-06-18T12:15:23,522  INFO Injector:87   --> source: org.matsim.contrib.dvrp.run.DvrpModes.registerDvrpMode(DvrpModes.java:40)
2026-06-18T12:15:23,523  INFO Injector:89   --> scope: eager singleton
2026-06-18T12:15:23,523  INFO Injector:94   ==full==> InstanceBinding{key=Key[type=org.matsim.contrib.dvrp.run.DvrpMode, annotation=@com.google.inject.internal.Element(setName=,uniqueId=165, type=MULTIBINDER, keyType=)], source=org.matsim.contrib.dvrp.run.DvrpModes.registerDvrpMode(DvrpModes.java:40), instance=@org.matsim.contrib.dvrp.run.DvrpMode(value=drt)}
2026-06-18T12:15:23,523  INFO Injector:96 
2026-06-18T12:15:23,523  INFO Injector:85 org.matsim.api.core.v01.network.Network @org.matsim.contrib.dvrp.run.DvrpMode(value=drt)
2026-06-18T12:15:23,525  INFO Injector:86   --> provider: FactoryProxy{key=Key[type=org.matsim.api.core.v01.network.Network, annotation=@org.matsim.contrib.dvrp.run.DvrpMode(value=drt)], provider=Key[type=org.matsim.contrib.dvrp.router.DvrpGlobalRoutingNetworkProvider, annotation=[none]][Scopes.SINGLETON]}
2026-06-18T12:15:23,525  INFO Injector:87   --> source: org.matsim.core.modal.AbstractModalModule.bindModal(AbstractModalModule.java:59)
2026-06-18T12:15:23,525  INFO Injector:89   --> scope: Scopes.NO_SCOPE
2026-06-18T12:15:23,526  INFO Injector:92   --> target: Key[type=org.matsim.api.core.v01.network.Network, annotation=@com.google.inject.name.Named("dvrp_routing")]
2026-06-18T12:15:23,529  INFO Injector:94   ==full==> LinkedKeyBinding{key=Key[type=org.matsim.api.core.v01.network.Network, annotation=@org.matsim.contrib.dvrp.run.DvrpMode(value=drt)], source=org.matsim.core.modal.AbstractModalModule.bindModal(AbstractModalModule.java:59), scope=Scopes.NO_SCOPE, target=Key[type=org.matsim.api.core.v01.network.Network, annotation=@com.google.inject.name.Named("dvrp_routing")]}
2026-06-18T12:15:23,531  INFO Injector:96 
2026-06-18T12:15:23,532  INFO Injector:85 org.matsim.contrib.zone.skims.TravelTimeMatrix @org.matsim.contrib.dvrp.run.DvrpMode(value=drt)
2026-06-18T12:15:23,533  INFO Injector:86   --> provider: FactoryProxy{key=Key[type=org.matsim.contrib.zone.skims.TravelTimeMatrix, annotation=@org.matsim.contrib.dvrp.run.DvrpMode(value=drt)], provider=org.matsim.contrib.dvrp.run.DvrpModule$1@50fb33a[Scopes.SINGLETON]}
2026-06-18T12:15:23,533  INFO Injector:87   --> source: org.matsim.core.modal.AbstractModalModule.bindModal(AbstractModalModule.java:59)
2026-06-18T12:15:23,535  INFO Injector:89   --> scope: Scopes.NO_SCOPE
2026-06-18T12:15:23,535  INFO Injector:92   --> target: Key[type=org.matsim.contrib.zone.skims.TravelTimeMatrix, annotation=[none]]
2026-06-18T12:15:23,535  INFO Injector:94   ==full==> LinkedKeyBinding{key=Key[type=org.matsim.contrib.zone.skims.TravelTimeMatrix, annotation=@org.matsim.contrib.dvrp.run.DvrpMode(value=drt)], source=org.matsim.core.modal.AbstractModalModule.bindModal(AbstractModalModule.java:59), scope=Scopes.NO_SCOPE, target=Key[type=org.matsim.contrib.zone.skims.TravelTimeMatrix, annotation=[none]]}
2026-06-18T12:15:23,536  INFO Injector:96 
2026-06-18T12:15:23,536  INFO Injector:85 org.matsim.core.router.util.TravelTime @org.matsim.contrib.dvrp.run.DvrpMode(value=drt)
2026-06-18T12:15:23,536  INFO Injector:86   --> provider: FactoryProxy{key=Key[type=org.matsim.core.router.util.TravelTime, annotation=@org.matsim.contrib.dvrp.run.DvrpMode(value=drt)], provider=FactoryProxy{key=Key[type=org.matsim.core.router.util.TravelTime, annotation=@com.google.inject.name.Named("dvrp_estimated")], provider=FactoryProxy{key=Key[type=org.matsim.contrib.dvrp.trafficmonitoring.DvrpTravelTimeEstimator, annotation=[none]], provider=com.google.inject.internal.ConstructorBindingImpl$Factory@3252747e[Scopes.SINGLETON]}}}
2026-06-18T12:15:23,536  INFO Injector:87   --> source: org.matsim.core.modal.AbstractModalModule.bindModal(AbstractModalModule.java:59)
2026-06-18T12:15:23,537  INFO Injector:89   --> scope: Scopes.NO_SCOPE
2026-06-18T12:15:23,537  INFO Injector:92   --> target: Key[type=org.matsim.core.router.util.TravelTime, annotation=@com.google.inject.name.Named("dvrp_estimated")]
2026-06-18T12:15:23,537  INFO Injector:94   ==full==> LinkedKeyBinding{key=Key[type=org.matsim.core.router.util.TravelTime, annotation=@org.matsim.contrib.dvrp.run.DvrpMode(value=drt)], source=org.matsim.core.modal.AbstractModalModule.bindModal(AbstractModalModule.java:59), scope=Scopes.NO_SCOPE, target=Key[type=org.matsim.core.router.util.TravelTime, annotation=@com.google.inject.name.Named("dvrp_estimated")]}
2026-06-18T12:15:23,537  INFO Injector:96 
2026-06-18T12:15:23,537  INFO Injector:85 org.matsim.core.router.costcalculators.TravelDisutilityFactory @org.matsim.contrib.dvrp.run.DvrpMode(value=drt)
2026-06-18T12:15:23,537  INFO Injector:86   --> provider: ConstantFactory{value=org.matsim.contrib.drt.run.DrtModeModule$$Lambda/0x0000000016356fd8@2b4b96a4}[Scopes.SINGLETON]
2026-06-18T12:15:23,539  INFO Injector:87   --> source: org.matsim.core.modal.AbstractModalModule.bindModal(AbstractModalModule.java:59)
2026-06-18T12:15:23,539  INFO Injector:89   --> scope: eager singleton
2026-06-18T12:15:23,539  INFO Injector:94   ==full==> InstanceBinding{key=Key[type=org.matsim.core.router.costcalculators.TravelDisutilityFactory, annotation=@org.matsim.contrib.dvrp.run.DvrpMode(value=drt)], source=org.matsim.core.modal.AbstractModalModule.bindModal(AbstractModalModule.java:59), instance=org.matsim.contrib.drt.run.DrtModeModule$$Lambda/0x0000000016356fd8@2b4b96a4}
2026-06-18T12:15:23,539  INFO Injector:96 
2026-06-18T12:15:23,540  INFO Injector:85 org.matsim.contrib.dvrp.fleet.FleetSpecification @org.matsim.contrib.dvrp.run.DvrpMode(value=drt)
2026-06-18T12:15:23,540  INFO Injector:86   --> provider: org.matsim.contrib.dvrp.fleet.FleetModule$$Lambda/0x0000000016358000@2dd8ff1d[Scopes.SINGLETON]
2026-06-18T12:15:23,540  INFO Injector:87   --> source: org.matsim.core.modal.AbstractModalModule.bindModal(AbstractModalModule.java:59)
2026-06-18T12:15:23,540  INFO Injector:89   --> scope: eager singleton
2026-06-18T12:15:23,540  INFO Injector:94   ==full==> ProviderInstanceBinding{key=Key[type=org.matsim.contrib.dvrp.fleet.FleetSpecification, annotation=@org.matsim.contrib.dvrp.run.DvrpMode(value=drt)], source=org.matsim.core.modal.AbstractModalModule.bindModal(AbstractModalModule.java:59), scope=eager singleton, provider=org.matsim.contrib.dvrp.fleet.FleetModule$$Lambda/0x0000000016358000@2dd8ff1d}
2026-06-18T12:15:23,541  INFO Injector:96 
2026-06-18T12:15:23,541  INFO Injector:85 org.matsim.core.mobsim.qsim.AbstractQSimModule @com.google.inject.internal.Element(setName=,uniqueId=166, type=MULTIBINDER, keyType=)
2026-06-18T12:15:23,541  INFO Injector:86   --> provider: ConstantFactory{value=org.matsim.contrib.dvrp.fleet.FleetModule$2@3d64c581}[Scopes.SINGLETON]
2026-06-18T12:15:23,541  INFO Injector:87   --> source: org.matsim.contrib.dvrp.fleet.FleetModule.install(FleetModule.java:92)
2026-06-18T12:15:23,542  INFO Injector:89   --> scope: eager singleton
2026-06-18T12:15:23,542  INFO Injector:94   ==full==> InstanceBinding{key=Key[type=org.matsim.core.mobsim.qsim.AbstractQSimModule, annotation=@com.google.inject.internal.Element(setName=,uniqueId=166, type=MULTIBINDER, keyType=)], source=org.matsim.contrib.dvrp.fleet.FleetModule.install(FleetModule.java:92), instance=org.matsim.contrib.dvrp.fleet.FleetModule$2@3d64c581}
2026-06-18T12:15:23,542  INFO Injector:96 
2026-06-18T12:15:23,543  INFO Injector:85 org.matsim.contrib.dvrp.fleet.FleetControlerListener @org.matsim.contrib.dvrp.run.DvrpMode(value=drt)
2026-06-18T12:15:23,543  INFO Injector:86   --> provider: org.matsim.core.modal.ModalProviders$1@75d982d3[Scopes.SINGLETON]
2026-06-18T12:15:23,543  INFO Injector:87   --> source: org.matsim.core.modal.AbstractModalModule.bindModal(AbstractModalModule.java:59)
2026-06-18T12:15:23,544  INFO Injector:89   --> scope: Scopes.SINGLETON
2026-06-18T12:15:23,544  INFO Injector:94   ==full==> ProviderInstanceBinding{key=Key[type=org.matsim.contrib.dvrp.fleet.FleetControlerListener, annotation=@org.matsim.contrib.dvrp.run.DvrpMode(value=drt)], source=org.matsim.core.modal.AbstractModalModule.bindModal(AbstractModalModule.java:59), scope=Scopes.SINGLETON, provider=org.matsim.core.modal.ModalProviders$1@75d982d3}
2026-06-18T12:15:23,544  INFO Injector:96 
2026-06-18T12:15:23,546  INFO Injector:85 org.matsim.core.controler.listener.ControlerListener @com.google.inject.internal.Element(setName=,uniqueId=167, type=MULTIBINDER, keyType=)
2026-06-18T12:15:23,547  INFO Injector:86   --> provider: FactoryProxy{key=Key[type=org.matsim.core.controler.listener.ControlerListener, annotation=@com.google.inject.internal.Element(setName=,uniqueId=167, type=MULTIBINDER, keyType=)], provider=org.matsim.core.modal.ModalProviders$1@75d982d3[Scopes.SINGLETON]}
2026-06-18T12:15:23,547  INFO Injector:87   --> source: org.matsim.contrib.dvrp.fleet.FleetModule.install(FleetModule.java:111)
2026-06-18T12:15:23,548  INFO Injector:89   --> scope: Scopes.NO_SCOPE
2026-06-18T12:15:23,548  INFO Injector:92   --> target: Key[type=org.matsim.contrib.dvrp.fleet.FleetControlerListener, annotation=@org.matsim.contrib.dvrp.run.DvrpMode(value=drt)]
2026-06-18T12:15:23,548  INFO Injector:94   ==full==> LinkedKeyBinding{key=Key[type=org.matsim.core.controler.listener.ControlerListener, annotation=@com.google.inject.internal.Element(setName=,uniqueId=167, type=MULTIBINDER, keyType=)], source=org.matsim.contrib.dvrp.fleet.FleetModule.install(FleetModule.java:111), scope=Scopes.NO_SCOPE, target=Key[type=org.matsim.contrib.dvrp.fleet.FleetControlerListener, annotation=@org.matsim.contrib.dvrp.run.DvrpMode(value=drt)]}
2026-06-18T12:15:23,548  INFO Injector:96 
2026-06-18T12:15:23,549  INFO Injector:85 org.matsim.vehicles.VehicleType @org.matsim.contrib.dvrp.run.DvrpMode(value=drt)
2026-06-18T12:15:23,549  INFO Injector:86   --> provider: ConstantFactory{value=org.matsim.vehicles.VehicleType@17e9bc9e}[Scopes.SINGLETON]
2026-06-18T12:15:23,550  INFO Injector:87   --> source: org.matsim.core.modal.AbstractModalModule.bindModal(AbstractModalModule.java:59)
2026-06-18T12:15:23,550  INFO Injector:89   --> scope: eager singleton
2026-06-18T12:15:23,550  INFO Injector:94   ==full==> InstanceBinding{key=Key[type=org.matsim.vehicles.VehicleType, annotation=@org.matsim.contrib.dvrp.run.DvrpMode(value=drt)], source=org.matsim.core.modal.AbstractModalModule.bindModal(AbstractModalModule.java:59), instance=org.matsim.vehicles.VehicleType@17e9bc9e}
2026-06-18T12:15:23,550  INFO Injector:96 
2026-06-18T12:15:23,551  INFO Injector:85 org.matsim.contrib.drt.analysis.zonal.DrtZonalSystem @org.matsim.contrib.dvrp.run.DvrpMode(value=drt)
2026-06-18T12:15:23,551  INFO Injector:86   --> provider: org.matsim.core.modal.ModalProviders$1@4f89331f[Scopes.SINGLETON]
2026-06-18T12:15:23,551  INFO Injector:87   --> source: org.matsim.core.modal.AbstractModalModule.bindModal(AbstractModalModule.java:59)
2026-06-18T12:15:23,551  INFO Injector:89   --> scope: eager singleton
2026-06-18T12:15:23,552  INFO Injector:94   ==full==> ProviderInstanceBinding{key=Key[type=org.matsim.contrib.drt.analysis.zonal.DrtZonalSystem, annotation=@org.matsim.contrib.dvrp.run.DvrpMode(value=drt)], source=org.matsim.core.modal.AbstractModalModule.bindModal(AbstractModalModule.java:59), scope=eager singleton, provider=org.matsim.core.modal.ModalProviders$1@4f89331f}
2026-06-18T12:15:23,552  INFO Injector:96 
2026-06-18T12:15:23,552  INFO Injector:85 org.matsim.contrib.drt.analysis.zonal.DrtZoneTargetLinkSelector @org.matsim.contrib.dvrp.run.DvrpMode(value=drt)
2026-06-18T12:15:23,552  INFO Injector:86   --> provider: org.matsim.core.modal.ModalProviders$1@618ff5c2[Scopes.SINGLETON]
2026-06-18T12:15:23,553  INFO Injector:87   --> source: org.matsim.core.modal.AbstractModalModule.bindModal(AbstractModalModule.java:59)
2026-06-18T12:15:23,553  INFO Injector:89   --> scope: eager singleton
2026-06-18T12:15:23,553  INFO Injector:94   ==full==> ProviderInstanceBinding{key=Key[type=org.matsim.contrib.drt.analysis.zonal.DrtZoneTargetLinkSelector, annotation=@org.matsim.contrib.dvrp.run.DvrpMode(value=drt)], source=org.matsim.core.modal.AbstractModalModule.bindModal(AbstractModalModule.java:59), scope=eager singleton, provider=org.matsim.core.modal.ModalProviders$1@618ff5c2}
2026-06-18T12:15:23,553  INFO Injector:96 
2026-06-18T12:15:23,553  INFO Injector:85 org.matsim.contrib.drt.analysis.zonal.ZonalIdleVehicleXYVisualiser @org.matsim.contrib.dvrp.run.DvrpMode(value=drt)
2026-06-18T12:15:23,554  INFO Injector:86   --> provider: org.matsim.core.modal.ModalProviders$1@16727bf0[Scopes.SINGLETON]
2026-06-18T12:15:23,554  INFO Injector:87   --> source: org.matsim.core.modal.AbstractModalModule.bindModal(AbstractModalModule.java:59)
2026-06-18T12:15:23,554  INFO Injector:89   --> scope: eager singleton
2026-06-18T12:15:23,554  INFO Injector:94   ==full==> ProviderInstanceBinding{key=Key[type=org.matsim.contrib.drt.analysis.zonal.ZonalIdleVehicleXYVisualiser, annotation=@org.matsim.contrib.dvrp.run.DvrpMode(value=drt)], source=org.matsim.core.modal.AbstractModalModule.bindModal(AbstractModalModule.java:59), scope=eager singleton, provider=org.matsim.core.modal.ModalProviders$1@16727bf0}
2026-06-18T12:15:23,555  INFO Injector:96 
2026-06-18T12:15:23,555  INFO Injector:85 org.matsim.core.controler.listener.ControlerListener @com.google.inject.internal.Element(setName=,uniqueId=168, type=MULTIBINDER, keyType=)
2026-06-18T12:15:23,555  INFO Injector:86   --> provider: FactoryProxy{key=Key[type=org.matsim.core.controler.listener.ControlerListener, annotation=@com.google.inject.internal.Element(setName=,uniqueId=168, type=MULTIBINDER, keyType=)], provider=org.matsim.core.modal.ModalProviders$1@16727bf0[Scopes.SINGLETON]}
2026-06-18T12:15:23,555  INFO Injector:87   --> source: org.matsim.contrib.drt.analysis.zonal.DrtModeZonalSystemModule.install(DrtModeZonalSystemModule.java:97)
2026-06-18T12:15:23,555  INFO Injector:89   --> scope: Scopes.NO_SCOPE
2026-06-18T12:15:23,556  INFO Injector:92   --> target: Key[type=org.matsim.contrib.drt.analysis.zonal.ZonalIdleVehicleXYVisualiser, annotation=@org.matsim.contrib.dvrp.run.DvrpMode(value=drt)]
2026-06-18T12:15:23,556  INFO Injector:94   ==full==> LinkedKeyBinding{key=Key[type=org.matsim.core.controler.listener.ControlerListener, annotation=@com.google.inject.internal.Element(setName=,uniqueId=168, type=MULTIBINDER, keyType=)], source=org.matsim.contrib.drt.analysis.zonal.DrtModeZonalSystemModule.install(DrtModeZonalSystemModule.java:97), scope=Scopes.NO_SCOPE, target=Key[type=org.matsim.contrib.drt.analysis.zonal.ZonalIdleVehicleXYVisualiser, annotation=@org.matsim.contrib.dvrp.run.DvrpMode(value=drt)]}
2026-06-18T12:15:23,556  INFO Injector:96 
2026-06-18T12:15:23,556  INFO Injector:85 org.matsim.core.events.handler.EventHandler @com.google.inject.internal.Element(setName=,uniqueId=169, type=MULTIBINDER, keyType=)
2026-06-18T12:15:23,556  INFO Injector:86   --> provider: FactoryProxy{key=Key[type=org.matsim.core.events.handler.EventHandler, annotation=@com.google.inject.internal.Element(setName=,uniqueId=169, type=MULTIBINDER, keyType=)], provider=org.matsim.core.modal.ModalProviders$1@16727bf0[Scopes.SINGLETON]}
2026-06-18T12:15:23,557  INFO Injector:87   --> source: org.matsim.contrib.drt.analysis.zonal.DrtModeZonalSystemModule.install(DrtModeZonalSystemModule.java:98)
2026-06-18T12:15:23,557  INFO Injector:89   --> scope: Scopes.NO_SCOPE
2026-06-18T12:15:23,557  INFO Injector:92   --> target: Key[type=org.matsim.contrib.drt.analysis.zonal.ZonalIdleVehicleXYVisualiser, annotation=@org.matsim.contrib.dvrp.run.DvrpMode(value=drt)]
2026-06-18T12:15:23,557  INFO Injector:94   ==full==> LinkedKeyBinding{key=Key[type=org.matsim.core.events.handler.EventHandler, annotation=@com.google.inject.internal.Element(setName=,uniqueId=169, type=MULTIBINDER, keyType=)], source=org.matsim.contrib.drt.analysis.zonal.DrtModeZonalSystemModule.install(DrtModeZonalSystemModule.java:98), scope=Scopes.NO_SCOPE, target=Key[type=org.matsim.contrib.drt.analysis.zonal.ZonalIdleVehicleXYVisualiser, annotation=@org.matsim.contrib.dvrp.run.DvrpMode(value=drt)]}
2026-06-18T12:15:23,557  INFO Injector:96 
2026-06-18T12:15:23,557  INFO Injector:85 org.matsim.contrib.drt.analysis.zonal.DrtZonalWaitTimesAnalyzer @org.matsim.contrib.dvrp.run.DvrpMode(value=drt)
2026-06-18T12:15:23,558  INFO Injector:86   --> provider: org.matsim.core.modal.ModalProviders$1@2f84acf7[Scopes.SINGLETON]
2026-06-18T12:15:23,559  INFO Injector:87   --> source: org.matsim.core.modal.AbstractModalModule.bindModal(AbstractModalModule.java:59)
2026-06-18T12:15:23,559  INFO Injector:89   --> scope: eager singleton
2026-06-18T12:15:23,560  INFO Injector:94   ==full==> ProviderInstanceBinding{key=Key[type=org.matsim.contrib.drt.analysis.zonal.DrtZonalWaitTimesAnalyzer, annotation=@org.matsim.contrib.dvrp.run.DvrpMode(value=drt)], source=org.matsim.core.modal.AbstractModalModule.bindModal(AbstractModalModule.java:59), scope=eager singleton, provider=org.matsim.core.modal.ModalProviders$1@2f84acf7}
2026-06-18T12:15:23,560  INFO Injector:96 
2026-06-18T12:15:23,561  INFO Injector:85 org.matsim.core.controler.listener.ControlerListener @com.google.inject.internal.Element(setName=,uniqueId=170, type=MULTIBINDER, keyType=)
2026-06-18T12:15:23,561  INFO Injector:86   --> provider: FactoryProxy{key=Key[type=org.matsim.core.controler.listener.ControlerListener, annotation=@com.google.inject.internal.Element(setName=,uniqueId=170, type=MULTIBINDER, keyType=)], provider=org.matsim.core.modal.ModalProviders$1@2f84acf7[Scopes.SINGLETON]}
2026-06-18T12:15:23,562  INFO Injector:87   --> source: org.matsim.contrib.drt.analysis.zonal.DrtModeZonalSystemModule.install(DrtModeZonalSystemModule.java:103)
2026-06-18T12:15:23,562  INFO Injector:89   --> scope: Scopes.NO_SCOPE
2026-06-18T12:15:23,563  INFO Injector:92   --> target: Key[type=org.matsim.contrib.drt.analysis.zonal.DrtZonalWaitTimesAnalyzer, annotation=@org.matsim.contrib.dvrp.run.DvrpMode(value=drt)]
2026-06-18T12:15:23,563  INFO Injector:94   ==full==> LinkedKeyBinding{key=Key[type=org.matsim.core.controler.listener.ControlerListener, annotation=@com.google.inject.internal.Element(setName=,uniqueId=170, type=MULTIBINDER, keyType=)], source=org.matsim.contrib.drt.analysis.zonal.DrtModeZonalSystemModule.install(DrtModeZonalSystemModule.java:103), scope=Scopes.NO_SCOPE, target=Key[type=org.matsim.contrib.drt.analysis.zonal.DrtZonalWaitTimesAnalyzer, annotation=@org.matsim.contrib.dvrp.run.DvrpMode(value=drt)]}
2026-06-18T12:15:23,565  INFO Injector:96 
2026-06-18T12:15:23,565  INFO Injector:85 org.matsim.core.mobsim.qsim.AbstractQSimModule @com.google.inject.internal.Element(setName=,uniqueId=171, type=MULTIBINDER, keyType=)
2026-06-18T12:15:23,566  INFO Injector:86   --> provider: ConstantFactory{value=org.matsim.contrib.drt.optimizer.rebalancing.mincostflow.DrtModeMinCostFlowRebalancingModule$1@5ec5ea63}[Scopes.SINGLETON]
2026-06-18T12:15:23,566  INFO Injector:87   --> source: org.matsim.contrib.drt.optimizer.rebalancing.mincostflow.DrtModeMinCostFlowRebalancingModule.install(DrtModeMinCostFlowRebalancingModule.java:57)
2026-06-18T12:15:23,566  INFO Injector:89   --> scope: eager singleton
2026-06-18T12:15:23,567  INFO Injector:94   ==full==> InstanceBinding{key=Key[type=org.matsim.core.mobsim.qsim.AbstractQSimModule, annotation=@com.google.inject.internal.Element(setName=,uniqueId=171, type=MULTIBINDER, keyType=)], source=org.matsim.contrib.drt.optimizer.rebalancing.mincostflow.DrtModeMinCostFlowRebalancingModule.install(DrtModeMinCostFlowRebalancingModule.java:57), instance=org.matsim.contrib.drt.optimizer.rebalancing.mincostflow.DrtModeMinCostFlowRebalancingModule$1@5ec5ea63}
2026-06-18T12:15:23,567  INFO Injector:96 
2026-06-18T12:15:23,567  INFO Injector:85 org.matsim.contrib.drt.optimizer.rebalancing.demandestimator.PreviousIterationDRTDemandEstimator @org.matsim.contrib.dvrp.run.DvrpMode(value=drt)
2026-06-18T12:15:23,568  INFO Injector:86   --> provider: org.matsim.core.modal.ModalProviders$1@291373d3[Scopes.SINGLETON]
2026-06-18T12:15:23,568  INFO Injector:87   --> source: org.matsim.core.modal.AbstractModalModule.bindModal(AbstractModalModule.java:59)
2026-06-18T12:15:23,569  INFO Injector:89   --> scope: eager singleton
2026-06-18T12:15:23,569  INFO Injector:94   ==full==> ProviderInstanceBinding{key=Key[type=org.matsim.contrib.drt.optimizer.rebalancing.demandestimator.PreviousIterationDRTDemandEstimator, annotation=@org.matsim.contrib.dvrp.run.DvrpMode(value=drt)], source=org.matsim.core.modal.AbstractModalModule.bindModal(AbstractModalModule.java:59), scope=eager singleton, provider=org.matsim.core.modal.ModalProviders$1@291373d3}
2026-06-18T12:15:23,569  INFO Injector:96 
2026-06-18T12:15:23,570  INFO Injector:85 org.matsim.contrib.drt.optimizer.rebalancing.demandestimator.ZonalDemandEstimator @org.matsim.contrib.dvrp.run.DvrpMode(value=drt)
2026-06-18T12:15:23,570  INFO Injector:86   --> provider: FactoryProxy{key=Key[type=org.matsim.contrib.drt.optimizer.rebalancing.demandestimator.ZonalDemandEstimator, annotation=@org.matsim.contrib.dvrp.run.DvrpMode(value=drt)], provider=org.matsim.core.modal.ModalProviders$1@291373d3[Scopes.SINGLETON]}
2026-06-18T12:15:23,570  INFO Injector:87   --> source: org.matsim.core.modal.AbstractModalModule.bindModal(AbstractModalModule.java:59)
2026-06-18T12:15:23,570  INFO Injector:89   --> scope: Scopes.NO_SCOPE
2026-06-18T12:15:23,571  INFO Injector:92   --> target: Key[type=org.matsim.contrib.drt.optimizer.rebalancing.demandestimator.PreviousIterationDRTDemandEstimator, annotation=@org.matsim.contrib.dvrp.run.DvrpMode(value=drt)]
2026-06-18T12:15:23,571  INFO Injector:94   ==full==> LinkedKeyBinding{key=Key[type=org.matsim.contrib.drt.optimizer.rebalancing.demandestimator.ZonalDemandEstimator, annotation=@org.matsim.contrib.dvrp.run.DvrpMode(value=drt)], source=org.matsim.core.modal.AbstractModalModule.bindModal(AbstractModalModule.java:59), scope=Scopes.NO_SCOPE, target=Key[type=org.matsim.contrib.drt.optimizer.rebalancing.demandestimator.PreviousIterationDRTDemandEstimator, annotation=@org.matsim.contrib.dvrp.run.DvrpMode(value=drt)]}
2026-06-18T12:15:23,571  INFO Injector:96 
2026-06-18T12:15:23,571  INFO Injector:85 org.matsim.core.events.handler.EventHandler @com.google.inject.internal.Element(setName=,uniqueId=172, type=MULTIBINDER, keyType=)
2026-06-18T12:15:23,572  INFO Injector:86   --> provider: FactoryProxy{key=Key[type=org.matsim.core.events.handler.EventHandler, annotation=@com.google.inject.internal.Element(setName=,uniqueId=172, type=MULTIBINDER, keyType=)], provider=org.matsim.core.modal.ModalProviders$1@291373d3[Scopes.SINGLETON]}
2026-06-18T12:15:23,572  INFO Injector:87   --> source: org.matsim.contrib.drt.optimizer.rebalancing.mincostflow.DrtModeMinCostFlowRebalancingModule.install(DrtModeMinCostFlowRebalancingModule.java:107)
2026-06-18T12:15:23,572  INFO Injector:89   --> scope: Scopes.NO_SCOPE
2026-06-18T12:15:23,572  INFO Injector:92   --> target: Key[type=org.matsim.contrib.drt.optimizer.rebalancing.demandestimator.PreviousIterationDRTDemandEstimator, annotation=@org.matsim.contrib.dvrp.run.DvrpMode(value=drt)]
2026-06-18T12:15:23,572  INFO Injector:94   ==full==> LinkedKeyBinding{key=Key[type=org.matsim.core.events.handler.EventHandler, annotation=@com.google.inject.internal.Element(setName=,uniqueId=172, type=MULTIBINDER, keyType=)], source=org.matsim.contrib.drt.optimizer.rebalancing.mincostflow.DrtModeMinCostFlowRebalancingModule.install(DrtModeMinCostFlowRebalancingModule.java:107), scope=Scopes.NO_SCOPE, target=Key[type=org.matsim.contrib.drt.optimizer.rebalancing.demandestimator.PreviousIterationDRTDemandEstimator, annotation=@org.matsim.contrib.dvrp.run.DvrpMode(value=drt)]}
2026-06-18T12:15:23,573  INFO Injector:96 
2026-06-18T12:15:23,573  INFO Injector:85 org.matsim.core.router.RoutingModule @com.google.inject.name.Named("drt")
2026-06-18T12:15:23,573  INFO Injector:86   --> provider: org.matsim.contrib.dvrp.router.DvrpRoutingModuleProvider@372ca2d6
2026-06-18T12:15:23,573  INFO Injector:87   --> source: org.matsim.contrib.drt.run.DrtModeRoutingModule.install(DrtModeRoutingModule.java:79)
2026-06-18T12:15:23,574  INFO Injector:89   --> scope: Scopes.NO_SCOPE
2026-06-18T12:15:23,574  INFO Injector:94   ==full==> ProviderInstanceBinding{key=Key[type=org.matsim.core.router.RoutingModule, annotation=@com.google.inject.name.Named("drt")], source=org.matsim.contrib.drt.run.DrtModeRoutingModule.install(DrtModeRoutingModule.java:79), scope=Scopes.NO_SCOPE, provider=org.matsim.contrib.dvrp.router.DvrpRoutingModuleProvider@372ca2d6}
2026-06-18T12:15:23,578  INFO Injector:96 
2026-06-18T12:15:23,578  INFO Injector:85 org.matsim.core.router.RoutingModule @com.google.inject.internal.Element(setName=@org.matsim.contrib.dvrp.run.DvrpMode(value=drt),uniqueId=173, type=MAPBINDER, keyType=org.matsim.contrib.dvrp.router.DvrpRoutingModuleProvider$Stage)
2026-06-18T12:15:23,580  INFO Injector:86   --> provider: org.matsim.contrib.dvrp.router.DvrpModeRoutingModule$DefaultMainLegRouterProvider@38ed139b
2026-06-18T12:15:23,581  INFO Injector:87   --> source: org.matsim.contrib.drt.run.DrtModeRoutingModule.install(DrtModeRoutingModule.java:80)
2026-06-18T12:15:23,581  INFO Injector:89   --> scope: Scopes.NO_SCOPE
2026-06-18T12:15:23,581  INFO Injector:94   ==full==> ProviderInstanceBinding{key=Key[type=org.matsim.core.router.RoutingModule, annotation=@com.google.inject.internal.Element(setName=@org.matsim.contrib.dvrp.run.DvrpMode(value=drt),uniqueId=173, type=MAPBINDER, keyType=org.matsim.contrib.dvrp.router.DvrpRoutingModuleProvider$Stage)], source=org.matsim.contrib.drt.run.DrtModeRoutingModule.install(DrtModeRoutingModule.java:80), scope=Scopes.NO_SCOPE, provider=org.matsim.contrib.dvrp.router.DvrpModeRoutingModule$DefaultMainLegRouterProvider@38ed139b}
2026-06-18T12:15:23,582  INFO Injector:96 
2026-06-18T12:15:23,582  INFO Injector:85 org.matsim.contrib.dvrp.router.DefaultMainLegRouter$RouteCreator @org.matsim.contrib.dvrp.run.DvrpMode(value=drt)
2026-06-18T12:15:23,583  INFO Injector:86   --> provider: org.matsim.contrib.drt.run.DrtModeRoutingModule$DrtRouteCreatorProvider@a5272be
2026-06-18T12:15:23,583  INFO Injector:87   --> source: org.matsim.core.modal.AbstractModalModule.bindModal(AbstractModalModule.java:59)
2026-06-18T12:15:23,583  INFO Injector:89   --> scope: Scopes.NO_SCOPE
2026-06-18T12:15:23,583  INFO Injector:94   ==full==> ProviderInstanceBinding{key=Key[type=org.matsim.contrib.dvrp.router.DefaultMainLegRouter$RouteCreator, annotation=@org.matsim.contrib.dvrp.run.DvrpMode(value=drt)], source=org.matsim.core.modal.AbstractModalModule.bindModal(AbstractModalModule.java:59), scope=Scopes.NO_SCOPE, provider=org.matsim.contrib.drt.run.DrtModeRoutingModule$DrtRouteCreatorProvider@a5272be}
2026-06-18T12:15:23,584  INFO Injector:96 
2026-06-18T12:15:23,584  INFO Injector:85 org.matsim.contrib.drt.routing.DrtStopNetwork @org.matsim.contrib.dvrp.run.DvrpMode(value=drt)
2026-06-18T12:15:23,584  INFO Injector:86   --> provider: org.matsim.contrib.drt.run.DrtModeRoutingModule$DrtStopNetworkProvider@58ba5b30[Scopes.SINGLETON]
2026-06-18T12:15:23,584  INFO Injector:87   --> source: org.matsim.core.modal.AbstractModalModule.bindModal(AbstractModalModule.java:59)
2026-06-18T12:15:23,585  INFO Injector:89   --> scope: eager singleton
2026-06-18T12:15:23,585  INFO Injector:94   ==full==> ProviderInstanceBinding{key=Key[type=org.matsim.contrib.drt.routing.DrtStopNetwork, annotation=@org.matsim.contrib.dvrp.run.DvrpMode(value=drt)], source=org.matsim.core.modal.AbstractModalModule.bindModal(AbstractModalModule.java:59), scope=eager singleton, provider=org.matsim.contrib.drt.run.DrtModeRoutingModule$DrtStopNetworkProvider@58ba5b30}
2026-06-18T12:15:23,585  INFO Injector:96 
2026-06-18T12:15:23,585  INFO Injector:85 org.matsim.contrib.dvrp.router.DvrpRoutingModule$AccessEgressFacilityFinder @org.matsim.contrib.dvrp.run.DvrpMode(value=drt)
2026-06-18T12:15:23,585  INFO Injector:86   --> provider: org.matsim.core.modal.ModalProviders$1@4dba773d[Scopes.SINGLETON]
2026-06-18T12:15:23,585  INFO Injector:87   --> source: org.matsim.core.modal.AbstractModalModule.bindModal(AbstractModalModule.java:59)
2026-06-18T12:15:23,586  INFO Injector:89   --> scope: eager singleton
2026-06-18T12:15:23,586  INFO Injector:94   ==full==> ProviderInstanceBinding{key=Key[type=org.matsim.contrib.dvrp.router.DvrpRoutingModule$AccessEgressFacilityFinder, annotation=@org.matsim.contrib.dvrp.run.DvrpMode(value=drt)], source=org.matsim.core.modal.AbstractModalModule.bindModal(AbstractModalModule.java:59), scope=eager singleton, provider=org.matsim.core.modal.ModalProviders$1@4dba773d}
2026-06-18T12:15:23,586  INFO Injector:96 
2026-06-18T12:15:23,586  INFO Injector:85 org.matsim.contrib.drt.routing.DrtRouteUpdater @org.matsim.contrib.dvrp.run.DvrpMode(value=drt)
2026-06-18T12:15:23,587  INFO Injector:86   --> provider: org.matsim.contrib.drt.run.DrtModeRoutingModule$1@1d9bd4da[Scopes.SINGLETON]
2026-06-18T12:15:23,587  INFO Injector:87   --> source: org.matsim.core.modal.AbstractModalModule.bindModal(AbstractModalModule.java:59)
2026-06-18T12:15:23,587  INFO Injector:89   --> scope: eager singleton
2026-06-18T12:15:23,588  INFO Injector:94   ==full==> ProviderInstanceBinding{key=Key[type=org.matsim.contrib.drt.routing.DrtRouteUpdater, annotation=@org.matsim.contrib.dvrp.run.DvrpMode(value=drt)], source=org.matsim.core.modal.AbstractModalModule.bindModal(AbstractModalModule.java:59), scope=eager singleton, provider=org.matsim.contrib.drt.run.DrtModeRoutingModule$1@1d9bd4da}
2026-06-18T12:15:23,588  INFO Injector:96 
2026-06-18T12:15:23,588  INFO Injector:85 org.matsim.core.controler.listener.ControlerListener @com.google.inject.internal.Element(setName=,uniqueId=175, type=MULTIBINDER, keyType=)
2026-06-18T12:15:23,588  INFO Injector:86   --> provider: FactoryProxy{key=Key[type=org.matsim.core.controler.listener.ControlerListener, annotation=@com.google.inject.internal.Element(setName=,uniqueId=175, type=MULTIBINDER, keyType=)], provider=org.matsim.contrib.drt.run.DrtModeRoutingModule$1@1d9bd4da[Scopes.SINGLETON]}
2026-06-18T12:15:23,589  INFO Injector:87   --> source: org.matsim.contrib.drt.run.DrtModeRoutingModule.install(DrtModeRoutingModule.java:115)
2026-06-18T12:15:23,589  INFO Injector:89   --> scope: Scopes.NO_SCOPE
2026-06-18T12:15:23,589  INFO Injector:92   --> target: Key[type=org.matsim.contrib.drt.routing.DrtRouteUpdater, annotation=@org.matsim.contrib.dvrp.run.DvrpMode(value=drt)]
2026-06-18T12:15:23,589  INFO Injector:94   ==full==> LinkedKeyBinding{key=Key[type=org.matsim.core.controler.listener.ControlerListener, annotation=@com.google.inject.internal.Element(setName=,uniqueId=175, type=MULTIBINDER, keyType=)], source=org.matsim.contrib.drt.run.DrtModeRoutingModule.install(DrtModeRoutingModule.java:115), scope=Scopes.NO_SCOPE, target=Key[type=org.matsim.contrib.drt.routing.DrtRouteUpdater, annotation=@org.matsim.contrib.dvrp.run.DvrpMode(value=drt)]}
2026-06-18T12:15:23,590  INFO Injector:96 
2026-06-18T12:15:23,590  INFO Injector:85 org.matsim.contrib.drt.fare.DrtFareHandler @org.matsim.contrib.dvrp.run.DvrpMode(value=drt)
2026-06-18T12:15:23,591  INFO Injector:86   --> provider: ConstantFactory{value=org.matsim.contrib.drt.fare.DrtFareHandler@4c58255}[Scopes.SINGLETON]
2026-06-18T12:15:23,591  INFO Injector:87   --> source: org.matsim.core.modal.AbstractModalModule.bindModal(AbstractModalModule.java:59)
2026-06-18T12:15:23,591  INFO Injector:89   --> scope: eager singleton
2026-06-18T12:15:23,591  INFO Injector:94   ==full==> InstanceBinding{key=Key[type=org.matsim.contrib.drt.fare.DrtFareHandler, annotation=@org.matsim.contrib.dvrp.run.DvrpMode(value=drt)], source=org.matsim.core.modal.AbstractModalModule.bindModal(AbstractModalModule.java:59), instance=org.matsim.contrib.drt.fare.DrtFareHandler@4c58255}
2026-06-18T12:15:23,592  INFO Injector:96 
2026-06-18T12:15:23,592  INFO Injector:85 org.matsim.core.events.handler.EventHandler @com.google.inject.internal.Element(setName=,uniqueId=176, type=MULTIBINDER, keyType=)
2026-06-18T12:15:23,592  INFO Injector:86   --> provider: FactoryProxy{key=Key[type=org.matsim.core.events.handler.EventHandler, annotation=@com.google.inject.internal.Element(setName=,uniqueId=176, type=MULTIBINDER, keyType=)], provider=ConstantFactory{value=org.matsim.contrib.drt.fare.DrtFareHandler@4c58255}[Scopes.SINGLETON]}
2026-06-18T12:15:23,594  INFO Injector:87   --> source: org.matsim.contrib.drt.run.DrtModeModule.install(DrtModeModule.java:74)
2026-06-18T12:15:23,595  INFO Injector:89   --> scope: Scopes.NO_SCOPE
2026-06-18T12:15:23,595  INFO Injector:92   --> target: Key[type=org.matsim.contrib.drt.fare.DrtFareHandler, annotation=@org.matsim.contrib.dvrp.run.DvrpMode(value=drt)]
2026-06-18T12:15:23,596  INFO Injector:94   ==full==> LinkedKeyBinding{key=Key[type=org.matsim.core.events.handler.EventHandler, annotation=@com.google.inject.internal.Element(setName=,uniqueId=176, type=MULTIBINDER, keyType=)], source=org.matsim.contrib.drt.run.DrtModeModule.install(DrtModeModule.java:74), scope=Scopes.NO_SCOPE, target=Key[type=org.matsim.contrib.drt.fare.DrtFareHandler, annotation=@org.matsim.contrib.dvrp.run.DvrpMode(value=drt)]}
2026-06-18T12:15:23,596  INFO Injector:96 
2026-06-18T12:15:23,596  INFO Injector:85 org.matsim.contrib.drt.schedule.StopDurationEstimator @org.matsim.contrib.dvrp.run.DvrpMode(value=drt)
2026-06-18T12:15:23,597  INFO Injector:86   --> provider: ConstantFactory{value=org.matsim.contrib.drt.run.DrtModeModule$$Lambda/0x0000000016362d48@36b9cb99}[Scopes.SINGLETON]
2026-06-18T12:15:23,597  INFO Injector:87   --> source: org.matsim.core.modal.AbstractModalModule.bindModal(AbstractModalModule.java:59)
2026-06-18T12:15:23,598  INFO Injector:89   --> scope: eager singleton
2026-06-18T12:15:23,598  INFO Injector:94   ==full==> InstanceBinding{key=Key[type=org.matsim.contrib.drt.schedule.StopDurationEstimator, annotation=@org.matsim.contrib.dvrp.run.DvrpMode(value=drt)], source=org.matsim.core.modal.AbstractModalModule.bindModal(AbstractModalModule.java:59), instance=org.matsim.contrib.drt.run.DrtModeModule$$Lambda/0x0000000016362d48@36b9cb99}
2026-06-18T12:15:23,599  INFO Injector:96 
2026-06-18T12:15:23,599  INFO Injector:85 org.matsim.contrib.drt.optimizer.insertion.IncrementalStopDurationEstimator @org.matsim.contrib.dvrp.run.DvrpMode(value=drt)
2026-06-18T12:15:23,600  INFO Injector:86   --> provider: ConstantFactory{value=org.matsim.contrib.drt.optimizer.insertion.DefaultIncrementalStopDurationEstimator@4130955c}[Scopes.SINGLETON]
2026-06-18T12:15:23,600  INFO Injector:87   --> source: org.matsim.core.modal.AbstractModalModule.bindModal(AbstractModalModule.java:59)
2026-06-18T12:15:23,601  INFO Injector:89   --> scope: eager singleton
2026-06-18T12:15:23,601  INFO Injector:94   ==full==> InstanceBinding{key=Key[type=org.matsim.contrib.drt.optimizer.insertion.IncrementalStopDurationEstimator, annotation=@org.matsim.contrib.dvrp.run.DvrpMode(value=drt)], source=org.matsim.core.modal.AbstractModalModule.bindModal(AbstractModalModule.java:59), instance=org.matsim.contrib.drt.optimizer.insertion.DefaultIncrementalStopDurationEstimator@4130955c}
2026-06-18T12:15:23,601  INFO Injector:96 
[...]
2026-06-18T12:15:33,952  INFO AbstractQNetsimEngine:366 SIMULATION (QNetsimEngine) AT 06:00:00 : #links=30 #nodes=4
2026-06-18T12:15:33,955  INFO QSim:566 SIMULATION (NEW QSim) AT 06:00:00 : #Veh=4773 lost=0 simT=21600.0s realT=7s; (s/r): 3085.714285714286
2026-06-18T12:15:36,175  INFO EventsManagerImpl:115  event # 65536
2026-06-18T12:15:37,518  INFO AbstractQNetsimEngine:366 SIMULATION (QNetsimEngine) AT 07:00:00 : #links=103 #nodes=21
2026-06-18T12:15:37,523  INFO QSim:566 SIMULATION (NEW QSim) AT 07:00:00 : #Veh=4773 lost=0 simT=25200.0s realT=10s; (s/r): 2520.0
2026-06-18T12:15:42,311  INFO AbstractQNetsimEngine:366 SIMULATION (QNetsimEngine) AT 08:00:00 : #links=120 #nodes=16
2026-06-18T12:15:42,312  INFO QSim:566 SIMULATION (NEW QSim) AT 08:00:00 : #Veh=4773 lost=0 simT=28800.0s realT=15s; (s/r): 1920.0
2026-06-18T12:15:43,426  INFO EventsManagerImpl:115  event # 262144
2026-06-18T12:15:45,237  INFO AbstractQNetsimEngine:366 SIMULATION (QNetsimEngine) AT 09:00:00 : #links=47 #nodes=8
2026-06-18T12:15:45,246  INFO QSim:566 SIMULATION (NEW QSim) AT 09:00:00 : #Veh=4773 lost=0 simT=32400.0s realT=18s; (s/r): 1800.0
2026-06-18T12:15:46,734  INFO AbstractQNetsimEngine:366 SIMULATION (QNetsimEngine) AT 10:00:00 : #links=25 #nodes=6
2026-06-18T12:15:46,740  INFO QSim:566 SIMULATION (NEW QSim) AT 10:00:00 : #Veh=4766 lost=0 simT=36000.0s realT=19s; (s/r): 1894.7368421052631
2026-06-18T12:15:48,287  INFO AbstractQNetsimEngine:366 SIMULATION (QNetsimEngine) AT 11:00:00 : #links=31 #nodes=4
2026-06-18T12:15:48,289  INFO QSim:566 SIMULATION (NEW QSim) AT 11:00:00 : #Veh=4702 lost=0 simT=39600.0s realT=21s; (s/r): 1885.7142857142858
2026-06-18T12:15:49,886  INFO AbstractQNetsimEngine:366 SIMULATION (QNetsimEngine) AT 12:00:00 : #links=29 #nodes=8
2026-06-18T12:15:49,888  INFO QSim:566 SIMULATION (NEW QSim) AT 12:00:00 : #Veh=4570 lost=0 simT=43200.0s realT=23s; (s/r): 1878.2608695652175
2026-06-18T12:15:51,007  INFO AbstractQNetsimEngine:366 SIMULATION (QNetsimEngine) AT 13:00:00 : #links=12 #nodes=6
2026-06-18T12:15:51,009  INFO QSim:566 SIMULATION (NEW QSim) AT 13:00:00 : #Veh=4408 lost=0 simT=46800.0s realT=24s; (s/r): 1950.0
2026-06-18T12:15:52,054  INFO AbstractQNetsimEngine:366 SIMULATION (QNetsimEngine) AT 14:00:00 : #links=19 #nodes=2
2026-06-18T12:15:52,059  INFO QSim:566 SIMULATION (NEW QSim) AT 14:00:00 : #Veh=4188 lost=0 simT=50400.0s realT=25s; (s/r): 2016.0
2026-06-18T12:15:54,680  INFO AbstractQNetsimEngine:366 SIMULATION (QNetsimEngine) AT 15:00:00 : #links=69 #nodes=10
2026-06-18T12:15:54,685  INFO QSim:566 SIMULATION (NEW QSim) AT 15:00:00 : #Veh=3830 lost=0 simT=54000.0s realT=27s; (s/r): 2000.0
2026-06-18T12:15:59,057  INFO AbstractQNetsimEngine:366 SIMULATION (QNetsimEngine) AT 16:00:00 : #links=107 #nodes=7
2026-06-18T12:15:59,057  INFO QSim:566 SIMULATION (NEW QSim) AT 16:00:00 : #Veh=2865 lost=0 simT=57600.0s realT=32s; (s/r): 1800.0
2026-06-18T12:16:03,297  INFO AbstractQNetsimEngine:366 SIMULATION (QNetsimEngine) AT 17:00:00 : #links=86 #nodes=16
2026-06-18T12:16:03,299  INFO QSim:566 SIMULATION (NEW QSim) AT 17:00:00 : #Veh=1721 lost=0 simT=61200.0s realT=36s; (s/r): 1700.0
2026-06-18T12:16:05,191  INFO AbstractQNetsimEngine:366 SIMULATION (QNetsimEngine) AT 18:00:00 : #links=35 #nodes=2
2026-06-18T12:16:05,198  INFO QSim:566 SIMULATION (NEW QSim) AT 18:00:00 : #Veh=986 lost=0 simT=64800.0s realT=38s; (s/r): 1705.2631578947369
2026-06-18T12:16:06,378  INFO AbstractQNetsimEngine:366 SIMULATION (QNetsimEngine) AT 19:00:00 : #links=14 #nodes=5
2026-06-18T12:16:06,383  INFO QSim:566 SIMULATION (NEW QSim) AT 19:00:00 : #Veh=655 lost=0 simT=68400.0s realT=39s; (s/r): 1753.8461538461538
2026-06-18T12:16:07,204  INFO AbstractQNetsimEngine:366 SIMULATION (QNetsimEngine) AT 20:00:00 : #links=6 #nodes=4
2026-06-18T12:16:07,225  INFO QSim:566 SIMULATION (NEW QSim) AT 20:00:00 : #Veh=448 lost=0 simT=72000.0s realT=40s; (s/r): 1800.0
2026-06-18T12:16:07,799  INFO AbstractQNetsimEngine:366 SIMULATION (QNetsimEngine) AT 21:00:00 : #links=11 #nodes=1
2026-06-18T12:16:07,803  INFO QSim:566 SIMULATION (NEW QSim) AT 21:00:00 : #Veh=337 lost=0 simT=75600.0s realT=40s; (s/r): 1890.0
2026-06-18T12:16:08,304  INFO AbstractQNetsimEngine:366 SIMULATION (QNetsimEngine) AT 22:00:00 : #links=5 #nodes=0
2026-06-18T12:16:08,320  INFO QSim:566 SIMULATION (NEW QSim) AT 22:00:00 : #Veh=268 lost=0 simT=79200.0s realT=41s; (s/r): 1931.7073170731708
2026-06-18T12:16:08,700  INFO AbstractQNetsimEngine:366 SIMULATION (QNetsimEngine) AT 23:00:00 : #links=0 #nodes=0
2026-06-18T12:16:08,701  INFO QSim:566 SIMULATION (NEW QSim) AT 23:00:00 : #Veh=250 lost=0 simT=82800.0s realT=41s; (s/r): 2019.5121951219512
2026-06-18T12:16:09,052  INFO AbstractQNetsimEngine:366 SIMULATION (QNetsimEngine) AT 24:00:00 : #links=0 #nodes=0
2026-06-18T12:16:09,058  INFO QSim:566 SIMULATION (NEW QSim) AT 24:00:00 : #Veh=0 lost=0 simT=86400.0s realT=42s; (s/r): 2057.1428571428573
2026-06-18T12:16:09,155  INFO AbstractController$9:235 ### ITERATION 0 fires after mobsim event
2026-06-18T12:16:09,156  INFO Gbl:192 Thread performance: Thread=class org.matsim.core.events.SimStepParallelEventsManagerImpl$ProcessEventsRunnable0  cpu-time=8.65625sec
2026-06-18T12:16:09,159  INFO ControlerListenerManagerImpl:249 calling notifyAfterMobsim on org.matsim.analysis.LegTimesControlerListener
2026-06-18T12:16:09,165  INFO LegTimesControlerListener:51 [0] average trip (probably: leg) duration is: 433 seconds = 00:07:13
2026-06-18T12:16:09,166  INFO ControlerListenerManagerImpl:249 calling notifyAfterMobsim on org.matsim.core.events.MobsimScopeEventHandling
2026-06-18T12:16:09,167  INFO EventsManagerImpl:159 removing Event-Handler: org.matsim.contrib.dvrp.passenger.DefaultPassengerEngine
2026-06-18T12:16:09,167  INFO EventsManagerImpl:159 removing Event-Handler: org.matsim.contrib.dvrp.passenger.DefaultPassengerEngine
2026-06-18T12:16:09,168  INFO ControlerListenerManagerImpl:249 calling notifyAfterMobsim on org.matsim.contrib.dvrp.trafficmonitoring.DvrpOfflineTravelTimeEstimator
2026-06-18T12:16:09,313  INFO ControlerListenerManagerImpl:249 calling notifyAfterMobsim on org.matsim.core.scoring.EventsToActivities$1
2026-06-18T12:16:09,327  INFO ControlerListenerManagerImpl:252 [it.0] all ControlerAfterMobsimListeners called.
2026-06-18T12:16:09,330  INFO AbstractController$4:160 ### ITERATION 0 fires scoring event
2026-06-18T12:16:09,331  INFO ControlerListenerManagerImpl:184 calling notifyScoring on org.matsim.core.scoring.PlansScoringImpl
2026-06-18T12:16:09,343  INFO NewScoreAssignerImpl:58 it: 0 msaStart: null
2026-06-18T12:16:09,349  INFO ControlerListenerManagerImpl:195 [it.0] all ControlerScoringListeners called.
2026-06-18T12:16:09,351  INFO AbstractController$5:168 ### ITERATION 0 fires iteration end event
2026-06-18T12:16:09,351  INFO ControlerListenerManagerImpl:161 calling notifyIterationEnds on org.matsim.core.controler.corelisteners.EventsHandlingImpl
2026-06-18T12:16:09,353  INFO EventsManagerImpl:159 removing Event-Handler: org.matsim.core.events.algorithms.EventWriterXML
2026-06-18T12:16:09,353  INFO EventsManagerImpl:159 removing Event-Handler: org.matsim.core.events.algorithms.EventWriterXML
2026-06-18T12:16:09,354  INFO ControlerListenerManagerImpl:161 calling notifyIterationEnds on org.matsim.core.scoring.PlansScoringImpl
2026-06-18T12:16:09,357  INFO ControlerListenerManagerImpl:168 calling notifyIterationEnds on org.matsim.counts.CountsControlerListener
2026-06-18T12:16:09,357  INFO ControlerListenerManagerImpl:168 calling notifyIterationEnds on org.matsim.analysis.ModeStatsControlerListener
2026-06-18T12:16:09,371  INFO ModeStatsControlerListener:145 Mode shares over all 10014.0 trips found. MainModeIdentifier: class org.matsim.core.router.RoutingModeMainModeIdentifier
2026-06-18T12:16:09,372  INFO ModeStatsControlerListener:152 -- mode share of mode drt = 1.0
2026-06-18T12:16:09,373  INFO ControlerListenerManagerImpl:168 calling notifyIterationEnds on org.matsim.analysis.ScoreStatsControlerListener
2026-06-18T12:16:09,377  INFO ScoreStatsControlerListener:149 -- avg. score of the executed plan of each agent: 89.11688596472963
2026-06-18T12:16:09,378  INFO ScoreStatsControlerListener:150 -- avg. score of the worst plan of each agent: 89.11688596472963
2026-06-18T12:16:09,379  INFO ScoreStatsControlerListener:151 -- avg. of the avg. plan score per agent: 89.11688596472963
2026-06-18T12:16:09,380  INFO ScoreStatsControlerListener:152 -- avg. score of the best plan of each agent: 89.11688596472963
2026-06-18T12:16:09,383  INFO ControlerListenerManagerImpl:168 calling notifyIterationEnds on org.matsim.analysis.IterationTravelStatsControlerListener
2026-06-18T12:16:09,454  INFO TravelDistanceStats:144 -- average leg distance per plan (executed plans only): 2933.968717243111 meters
2026-06-18T12:16:09,458  INFO TravelDistanceStats:145 average leg distance per Person (executed plans only): 19469.409038101865 meters (statistic on all 30014 legs which have a finite distance)
2026-06-18T12:16:09,459  INFO TravelDistanceStats:146 -- average trip distance per plan (executed plans only): 8793.702524399314 meters
2026-06-18T12:16:09,459  INFO TravelDistanceStats:147 average trip distance per Person (executed plans only): 19469.409038101865 meters (statistic on all 10014 trips which have a finite distance)
2026-06-18T12:16:09,459  INFO TravelDistanceStats:148 (TravelDistanceStats takes an average over all legs where the simulation reports travelled (network) distances
2026-06-18T12:16:09,461  INFO TravelDistanceStats:149 (and teleported legs whose route contains a distance.)
2026-06-18T12:16:11,572  INFO ControlerListenerManagerImpl:168 calling notifyIterationEnds on org.matsim.analysis.LegHistogramListener
2026-06-18T12:16:11,597  INFO LegHistogramListener:73 number of legs:	30014	100%
2026-06-18T12:16:11,600  INFO LegHistogramListener:80 number of drt legs:	10000	33.317785033650964%
2026-06-18T12:16:11,601  INFO LegHistogramListener:80 number of walk legs:	20014	66.68221496634904%
2026-06-18T12:16:11,968  INFO ControlerListenerManagerImpl:168 calling notifyIterationEnds on org.matsim.analysis.LinkStatsControlerListener
2026-06-18T12:16:11,968  INFO ControlerListenerManagerImpl:168 calling notifyIterationEnds on org.matsim.contrib.drt.analysis.DrtAnalysisControlerListener
2026-06-18T12:16:15,328  INFO ControlerListenerManagerImpl:168 calling notifyIterationEnds on org.matsim.contrib.common.timeprofile.ProfileWriter
2026-06-18T12:16:15,833  INFO ControlerListenerManagerImpl:168 calling notifyIterationEnds on org.matsim.contrib.common.timeprofile.ProfileWriter
2026-06-18T12:16:16,251  INFO ControlerListenerManagerImpl:168 calling notifyIterationEnds on org.matsim.contrib.drt.analysis.zonal.DrtZonalWaitTimesAnalyzer
2026-06-18T12:16:16,292  INFO ControlerListenerManagerImpl:168 calling notifyIterationEnds on org.matsim.contrib.drt.analysis.zonal.ZonalIdleVehicleXYVisualiser
2026-06-18T12:16:16,343  INFO ControlerListenerManagerImpl:172 [it.0] all ControlerIterationEndsListeners called.
2026-06-18T12:16:16,462  INFO AbstractController:182 ### ITERATION 0 ENDS
2026-06-18T12:16:16,468  INFO AbstractController:183 ###################################################
2026-06-18T12:16:16,468  INFO MatsimRuntimeModifications:80 S H U T D O W N   ---   start shutdown.
2026-06-18T12:16:16,469  INFO ControlerListenerManagerImpl:122 calling notifyShutdown on org.matsim.core.controler.corelisteners.EventsHandlingImpl
2026-06-18T12:16:16,469  INFO ControlerListenerManagerImpl:122 calling notifyShutdown on org.matsim.core.controler.corelisteners.DumpDataAtEndImpl
2026-06-18T12:16:16,475  INFO Counter:70 [PopulationWriter] dumped person # 1
2026-06-18T12:16:16,476  INFO Counter:70 [PopulationWriter] dumped person # 2
2026-06-18T12:16:16,477  INFO Counter:70 [PopulationWriter] dumped person # 4
2026-06-18T12:16:16,477  INFO Counter:70 [PopulationWriter] dumped person # 8
2026-06-18T12:16:16,479  INFO Counter:70 [PopulationWriter] dumped person # 16
2026-06-18T12:16:16,482  INFO Counter:70 [PopulationWriter] dumped person # 32
2026-06-18T12:16:16,486  INFO Counter:70 [PopulationWriter] dumped person # 64
2026-06-18T12:16:16,496  INFO Counter:70 [PopulationWriter] dumped person # 128
2026-06-18T12:16:16,516  INFO Counter:70 [PopulationWriter] dumped person # 256
2026-06-18T12:16:16,551  INFO Counter:70 [PopulationWriter] dumped person # 512
2026-06-18T12:16:16,656  INFO Counter:70 [PopulationWriter] dumped person # 1024
2026-06-18T12:16:16,802  INFO Counter:70 [PopulationWriter] dumped person # 2048
2026-06-18T12:16:17,076  INFO Counter:70 [PopulationWriter] dumped person # 4096
2026-06-18T12:16:17,138  INFO PopulationWriter:145 Population written to: output/S2/output_plans.xml.gz
2026-06-18T12:16:17,141  INFO Counter:75 [PopulationWriter] dumped person # 4523
2026-06-18T12:16:17,143  INFO NetworkWriter:70 Writing network to file: output/S2/output_network.xml.gz...
2026-06-18T12:16:17,370  INFO NetworkWriter:73 done.
2026-06-18T12:16:17,385  INFO Config:551 setting context to [file:/D:/Study/TUB/So2026/ITS/GroupAssignment/ITS-Homework2/Assignment_2/Task3-Cottbus/]
2026-06-18T12:16:17,389  INFO Config:551 setting context to [file:/D:/Study/TUB/So2026/ITS/GroupAssignment/ITS-Homework2/Assignment_2/Task3-Cottbus/]
2026-06-18T12:16:17,393  INFO Config:551 setting context to [file:/D:/Study/TUB/So2026/ITS/GroupAssignment/ITS-Homework2/Assignment_2/Task3-Cottbus/]
2026-06-18T12:16:17,398  INFO Config:551 setting context to [file:/D:/Study/TUB/So2026/ITS/GroupAssignment/ITS-Homework2/Assignment_2/Task3-Cottbus/]
2026-06-18T12:16:17,401  INFO Config:551 setting context to [file:/D:/Study/TUB/So2026/ITS/GroupAssignment/ITS-Homework2/Assignment_2/Task3-Cottbus/]
2026-06-18T12:16:17,406  INFO Config:551 setting context to [file:/D:/Study/TUB/So2026/ITS/GroupAssignment/ITS-Homework2/Assignment_2/Task3-Cottbus/]
2026-06-18T12:16:17,409  INFO Config:551 setting context to [file:/D:/Study/TUB/So2026/ITS/GroupAssignment/ITS-Homework2/Assignment_2/Task3-Cottbus/]
2026-06-18T12:16:17,415  INFO Config:551 setting context to [file:/D:/Study/TUB/So2026/ITS/GroupAssignment/ITS-Homework2/Assignment_2/Task3-Cottbus/]
2026-06-18T12:16:17,417  INFO Config:551 setting context to [file:/D:/Study/TUB/So2026/ITS/GroupAssignment/ITS-Homework2/Assignment_2/Task3-Cottbus/]
2026-06-18T12:16:17,420  INFO Config:551 setting context to [file:/D:/Study/TUB/So2026/ITS/GroupAssignment/ITS-Homework2/Assignment_2/Task3-Cottbus/]
2026-06-18T12:16:17,423  INFO Config:551 setting context to [file:/D:/Study/TUB/So2026/ITS/GroupAssignment/ITS-Homework2/Assignment_2/Task3-Cottbus/]
2026-06-18T12:16:17,425  INFO Config:551 setting context to [file:/D:/Study/TUB/So2026/ITS/GroupAssignment/ITS-Homework2/Assignment_2/Task3-Cottbus/]
2026-06-18T12:16:17,427  INFO Config:551 setting context to [file:/D:/Study/TUB/So2026/ITS/GroupAssignment/ITS-Homework2/Assignment_2/Task3-Cottbus/]
2026-06-18T12:16:17,433  INFO Config:551 setting context to [file:/D:/Study/TUB/So2026/ITS/GroupAssignment/ITS-Homework2/Assignment_2/Task3-Cottbus/]
2026-06-18T12:16:17,435  INFO Config:551 setting context to [file:/D:/Study/TUB/So2026/ITS/GroupAssignment/ITS-Homework2/Assignment_2/Task3-Cottbus/]
2026-06-18T12:16:17,437  INFO Config:551 setting context to [file:/D:/Study/TUB/So2026/ITS/GroupAssignment/ITS-Homework2/Assignment_2/Task3-Cottbus/]
2026-06-18T12:16:17,440  INFO Config:551 setting context to [file:/D:/Study/TUB/So2026/ITS/GroupAssignment/ITS-Homework2/Assignment_2/Task3-Cottbus/]
2026-06-18T12:16:17,442  INFO Config:551 setting context to [file:/D:/Study/TUB/So2026/ITS/GroupAssignment/ITS-Homework2/Assignment_2/Task3-Cottbus/]
2026-06-18T12:16:17,456  INFO Config:551 setting context to [file:/D:/Study/TUB/So2026/ITS/GroupAssignment/ITS-Homework2/Assignment_2/Task3-Cottbus/]
2026-06-18T12:16:17,459  INFO Config:551 setting context to [file:/D:/Study/TUB/So2026/ITS/GroupAssignment/ITS-Homework2/Assignment_2/Task3-Cottbus/]
2026-06-18T12:16:17,464  INFO Config:551 setting context to [file:/D:/Study/TUB/So2026/ITS/GroupAssignment/ITS-Homework2/Assignment_2/Task3-Cottbus/]
2026-06-18T12:16:17,466  INFO Config:551 setting context to [file:/D:/Study/TUB/So2026/ITS/GroupAssignment/ITS-Homework2/Assignment_2/Task3-Cottbus/]
2026-06-18T12:16:17,471  INFO Config:551 setting context to [file:/D:/Study/TUB/So2026/ITS/GroupAssignment/ITS-Homework2/Assignment_2/Task3-Cottbus/]
2026-06-18T12:16:17,474  INFO Config:551 setting context to [file:/D:/Study/TUB/So2026/ITS/GroupAssignment/ITS-Homework2/Assignment_2/Task3-Cottbus/]
2026-06-18T12:16:17,477  INFO Config:551 setting context to [file:/D:/Study/TUB/So2026/ITS/GroupAssignment/ITS-Homework2/Assignment_2/Task3-Cottbus/]
2026-06-18T12:16:17,480  INFO Config:551 setting context to [file:/D:/Study/TUB/So2026/ITS/GroupAssignment/ITS-Homework2/Assignment_2/Task3-Cottbus/]
2026-06-18T12:16:17,484  INFO Config:551 setting context to [file:/D:/Study/TUB/So2026/ITS/GroupAssignment/ITS-Homework2/Assignment_2/Task3-Cottbus/]
2026-06-18T12:16:17,487  INFO Config:551 setting context to [file:/D:/Study/TUB/So2026/ITS/GroupAssignment/ITS-Homework2/Assignment_2/Task3-Cottbus/]
2026-06-18T12:16:17,490  INFO Config:551 setting context to [file:/D:/Study/TUB/So2026/ITS/GroupAssignment/ITS-Homework2/Assignment_2/Task3-Cottbus/]
2026-06-18T12:16:17,492  INFO Config:551 setting context to [file:/D:/Study/TUB/So2026/ITS/GroupAssignment/ITS-Homework2/Assignment_2/Task3-Cottbus/]
2026-06-18T12:16:17,503  INFO MatsimVehicleWriter:55 about to write vehicles to: output/S2/output_vehicles.xml.gz
2026-06-18T12:16:17,504  INFO VehicleWriterV2:64 about to write vehicles to: output/S2/output_vehicles.xml.gz
2026-06-18T12:16:17,527  INFO MatsimVehicleWriter:55 about to write vehicles to: output/S2/output_allVehicles.xml.gz
2026-06-18T12:16:17,527  INFO VehicleWriterV2:64 about to write vehicles to: output/S2/output_allVehicles.xml.gz
2026-06-18T12:16:17,533  INFO HouseholdsWriterV10:67 about to write  households to: output/S2/output_households.xml.gz
2026-06-18T12:16:17,535  INFO Counter:75 [HouseholdsWriter] wrote household # 0
2026-06-18T12:16:17,564  INFO ControlerListenerManagerImpl:127 calling notifyShutdown on org.matsim.analysis.ScoreStatsControlerListener
2026-06-18T12:16:17,612  INFO ControlerListenerManagerImpl:127 calling notifyShutdown on org.matsim.analysis.IterationTravelStatsControlerListener
2026-06-18T12:16:17,615  INFO IterationTravelStatsControlerListener:115 Writing all Person and Attributes to personscsv
2026-06-18T12:16:17,722  INFO IterationTravelStatsControlerListener:159 ...done
2026-06-18T12:16:17,724  INFO ControlerListenerManagerImpl:127 calling notifyShutdown on org.matsim.analysis.LinkStatsControlerListener
2026-06-18T12:16:17,959  INFO ControlerListenerManagerImpl:127 calling notifyShutdown on org.matsim.contrib.drt.analysis.DrtAnalysisControlerListener
2026-06-18T12:16:18,017  INFO ControlerListenerManagerImpl:127 calling notifyShutdown on org.matsim.contrib.drt.routing.DefaultDrtRouteUpdater
2026-06-18T12:16:18,022  INFO ControlerListenerManagerImpl:127 calling notifyShutdown on org.matsim.contrib.drt.analysis.zonal.DrtZonalWaitTimesAnalyzer
2026-06-18T12:16:19,233  INFO ShapeFileWriter:51 Writing shapefile to output/S2/drt_waitStats_drt_zonal.shp
2026-06-18T12:16:19,807  INFO ControlerListenerManagerImpl:127 calling notifyShutdown on org.matsim.contrib.dvrp.fleet.FleetControlerListener
2026-06-18T12:16:19,815  INFO ControlerListenerManagerImpl:130 all ControlerShutdownListeners called.
2026-06-18T12:16:19,816  INFO MatsimRuntimeModifications:103 S H U T D O W N   ---   shutdown completed.
2026-06-18T12:16:19,816  INFO OutputDirectoryLogging:171 closing the logfile, i.e. messages sent to the logger after this message are not written to the logfile.
2026-06-18T12:16:19,818  INFO OutputDirectoryLogging:171 closing the logfile, i.e. messages sent to the logger after this message are not written to the logfile.
