2026-06-18T12:19:52,257  INFO Gbl:64 JVM: 26.0.1; Oracle Corporation; mixed mode, sharing; 64-bit
2026-06-18T12:19:52,259  INFO Gbl:68 OS: Windows 11; 10.0; amd64
2026-06-18T12:19:52,260  INFO Gbl:71 CPU cores: 20
2026-06-18T12:19:52,262  INFO Gbl:72 max. Memory: 7976.0MB (8363442176B)
2026-06-18T12:19:52,264  INFO Gbl:110 MATSim-Build: r8987b685626030c0c1edbdd95ddd7680a2ac9198 (2023-06-07 08:36:25)
2026-06-18T12:19:52,269  INFO ControlerListenerManagerImpl:108 calling notifyStartup on org.matsim.core.controler.ControlerDefaultsModule$1
2026-06-18T12:19:52,271  INFO MemoryObserver:42 used RAM: 61 MB  free: 118 MB  total: 180 MB
2026-06-18T12:19:52,296  INFO ControlerListenerManagerImpl:108 calling notifyStartup on org.matsim.guice.DependencyGraphControlerListener
2026-06-18T12:19:52,454  INFO ControlerListenerManagerImpl:108 calling notifyStartup on org.matsim.counts.CountsControlerListener
2026-06-18T12:19:52,484  INFO ControlerListenerManagerImpl:108 calling notifyStartup on org.matsim.analysis.ModeStatsControlerListener
2026-06-18T12:19:52,486  INFO ControlerListenerManagerImpl:108 calling notifyStartup on org.matsim.analysis.ScoreStatsControlerListener
2026-06-18T12:19:52,488  INFO ControlerListenerManagerImpl:111 all ControlerStartupListeners called.
2026-06-18T12:19:52,489  INFO ControlerUtils:80 config dump before iterations start
2026-06-18T12:19:52,536  INFO ControlerUtils:84 

<?xml version="1.0" encoding="UTF-8"?>
<!DOCTYPE config SYSTEM "http://www.matsim.org/files/dtd/config_v2.dtd">
<config>
	<module name="JDEQSim" >
		<param name="carSize" value="7.5" />
		<param name="endTime" value="undefined" />
		<param name="flowCapacityFactor" value="1.0" />
		<param name="gapTravelSpeed" value="15.0" />
		<param name="minimumInFlowCapacity" value="1800.0" />
		<param name="squeezeTime" value="1800.0" />
		<param name="storageCapacityFactor" value="1.0" />
	</module>
	<module name="ReplanningAnnealer" >
		<!-- Activate the scaling of replanning modules using an annealing approach rather than fixed rates. -->
		<param name="activateAnnealingModule" value="false" />
	</module>
	<module name="TimeAllocationMutator" >
		<!-- Default:true; Defines whether time mutation changes an activity's duration. -->
		<param name="mutationAffectsDuration" value="true" />
		<!-- Default:1800.0; Defines how many seconds a time mutation can maximally shift a time. -->
		<param name="mutationRange" value="900.0" />
	</module>
	<module name="changeMode" >
		<!-- Defines whether car availability is considered be considered or not. An agent has no car only if it has no license, or never access to a car. Default: true -->
		<param name="ignoreCarAvailability" value="true" />
		<!-- Defines the mode switch behavior. Possible values [fromAllModesToSpecifiedModes, fromSpecifiedModesToSpecifiedModes] Default: fromSpecifiedModesToSpecifiedModes. -->
		<param name="modeSwitchBehavior" value="fromSpecifiedModesToSpecifiedModes" />
		<!-- Defines all the modes available, including chain-based modes, seperated by commas -->
		<param name="modes" value="car,pt" />
	</module>
	<module name="controler" >
		<!-- Defines what should be done with the ITERS directory when a simulation finished successfully -->
		<param name="cleanItersAtEnd" value="keep" />
		<!-- Compression algorithm to use when writing out data to files. Possible values: [none, gzip, lz4, zst] -->
		<param name="compressionType" value="gzip" />
		<!-- Sets whether graphs showing some analyses should automatically be generated during the simulation. The generation of graphs usually takes a small amount of time that does not have any weight in big simulations, but add a significant overhead in smaller runs or in test cases where the graphical output is not even requested. -->
		<param name="createGraphs" value="true" />
		<!-- Defines when the scoring functions for the population are created. Default=IterationStarts. Possible values: [IterationStarts, BeforeMobsim] -->
		<param name="createScoringFunctionType" value="IterationStarts" />
		<!-- true if at the end of a run, plans, network, config etc should be dumped to a file -->
		<param name="dumpDataAtEnd" value="true" />
		<!-- Default=false. If enabled, the router takes travel times needed for turning moves into account. Cannot be used if the (Fast)AStarLandmarks routing or TravelTimeCalculator.separateModes is enabled. -->
		<param name="enableLinkToLinkRouting" value="false" />
		<!-- Default=xml; Specifies the file format for writing events. Currently supported: [xml, pb, json]
		Multiple values can be specified separated by commas (','). -->
		<param name="eventsFileFormat" value="xml" />
		<!-- Default=0. First Iteration of a simulation. -->
		<param name="firstIteration" value="0" />
		<!-- Default=1000. Last Iteration of a simulation. -->
		<param name="lastIteration" value="0" />
		<!-- Defines which mobility simulation will be used. Currently supported: qsim JDEQSim hermes 
		Depending on the chosen mobsim, you'll have to add additional config modules to configure the corresponding mobsim.
		For 'qsim', add a module 'qsim' to the config. -->
		<param name="mobsim" value="qsim" />
		<param name="outputDirectory" value="output/S6" />
		<!-- Possible values: failIfDirectoryExists,overwriteExistingFiles,deleteDirectoryIfExists -->
		<param name="overwriteFiles" value="overwriteExistingFiles" />
		<!-- The type of routing (least cost path) algorithm used, may have the values: [Dijkstra, AStarLandmarks, FastDijkstra, FastAStarLandmarks, SpeedyALT] -->
		<param name="routingAlgorithmType" value="AStarLandmarks" />
		<!-- An identifier for the current run which is used as prefix for output files and mentioned in output xml files etc. -->
		<param name="runId" value="null" />
		<!-- Comma-separated list of visualizer output file formats. `transims' and `otfvis'. -->
		<param name="snapshotFormat" value="" />
		<!-- iterationNumber % writeEventsInterval == 0 defines in which iterations events are written to a file. `0' disables events writing completely. -->
		<param name="writeEventsInterval" value="50" />
		<!-- iterationNumber % writePlansInterval == 0 defines (hopefully) in which iterations plans are written to a file. `0' disables plans writing completely.  Some plans in early iterations are always written -->
		<param name="writePlansInterval" value="50" />
		<!-- iterationNumber % writeSnapshotsInterval == 0 defines in which iterations snapshots are written to a file. `0' disables snapshots writing completely -->
		<param name="writeSnapshotsInterval" value="1" />
		<!-- iterationNumber % writeEventsInterval == 0 defines in which iterations trips CSV are written to a file. `0' disables trips writing completely. -->
		<param name="writeTripsInterval" value="50" />
	</module>
	<module name="counts" >
		<!-- Transport modes that will be respected for the counts comparison. 'car' is default, which includes also bussed from the pt simulation module. Use this parameter in combination with 'filterModes' = true! -->
		<param name="analyzedModes" value="car" />
		<!-- Specifies over how many iterations the link volumes should be averaged that are used for the counts comparison. Use 1 or 0 to only use the link volumes of a single iteration. This values cannot be larger than the value specified for writeCountsInterval -->
		<param name="averageCountsOverIterations" value="5" />
		<!-- factor by which to re-scale the simulated values.  necessary when simulation runs with something different from 100%.  needs to be adapted manually -->
		<param name="countsScaleFactor" value="1.0" />
		<!-- distance to distanceFilterCenterNode to include counting stations. The unit of distance is the Euclidean distance implied by the coordinate system -->
		<param name="distanceFilter" value="null" />
		<!-- node id for center node of distance filter -->
		<param name="distanceFilterCenterNode" value="null" />
		<!-- If true, link counts from legs performed on modes not included in the 'analyzedModes' parameter are ignored. -->
		<param name="filterModes" value="false" />
		<!-- The Coordinates Reference System in which the coordinates are expressed in the input file. At import, the coordinates will be converted to the coordinate system defined in "global", and willbe converted back at export. If not specified, no conversion happens. -->
		<param name="inputCRS" value="null" />
		<!-- input file name to counts package -->
		<param name="inputCountsFile" value="null" />
		<!-- possible values: `html', `txt', `all' -->
		<param name="outputformat" value="txt" />
		<!-- Specifies how often the counts comparison should be calculated and written. -->
		<param name="writeCountsInterval" value="10" />
	</module>
	<module name="dvrp" >
		<!-- File containing the initial link travel time estimates. Ignored if null -->
		<param name="initialTravelTimesFile" value="null" />
		<!-- Mode of which the network will be used for throwing events and hence calculating travel times. Default is car. -->
		<param name="mobsimMode" value="car" />
		<!-- Set of modes of which the network will be used for DVRP travel time estimation and routing DVRP vehicles. Each specific DVRP mode may use a subnetwork of this network for routing vehicles (e.g. DRT buses travelling only along a specified links or serving a limited area). Default is "car" (i.e. single-element set of modes), i.e. the car network is used. Empty value "" (i.e. empty set of modes) means no network filtering, i.e. the original scenario.network is used -->
		<param name="networkModes" value="car" />
		<!-- Used for OFFLINE estimation of travel times for VrpOptimizer by means of the exponential moving average. The weighting decrease, alpha, must be in (0,1]. We suggest small values of alpha, e.g. 0.05. The averaging starts from the initial travel time estimates. If not provided, the free-speed TTs is used as the initial estimates -->
		<param name="travelTimeEstimationAlpha" value="0.05" />
		<!-- Used for ONLINE estimation of travel times for VrpOptimizer by combining WithinDayTravelTime and DvrpOfflineTravelTimeEstimator. The beta coefficient is provided in seconds and should be either 0 (no online estimation) or positive (mixed online-offline estimation). For 'beta = 0', only the offline estimate is used: 'onlineTT(t) = offlineTT(t)', where 'offlineTT(t)' in the offline estimate for TT at time 't', For 'beta > 0', estimating future TTs at time 't', uses the currently observed TT to correct the offline estimates is made: where 'currentTT' is the currently observed TT, and 'correction = min(1, max(0, 1 - (time - currentTime) / beta))' The rule is that correction decreases linearly from 1 (when 'time = currentTime') to 0 (when 'time = currentTime + beta' For 'time > currentTime + beta' correction is 0, whereas if 'time < currentTime' it is 1. If beta is sufficiently large, 'beta >> 0', only the currently observed TT is used. -->
		<param name="travelTimeEstimationBeta" value="0.0" />
	</module>
	<module name="facilities" >
		<!-- This defines how facilities should be created. Possible values: none fromFile setInScenario onePerActivityLinkInPlansFile onePerActivityLinkInPlansFileExceptWhenCoordinatesAreGiven onePerActivityLocationInPlansFile  -->
		<param name="facilitiesSource" value="none" />
		<!-- A prefix to be used for auto-generated IDs. -->
		<param name="idPrefix" value="f_auto_" />
		<!-- The Coordinates Reference System in which the coordinates are expressed in the input file. At import, the coordinates will be converted to the coordinate system defined in "global", and willbe converted back at export. If not specified, no conversion happens. -->
		<param name="inputCRS" value="null" />
		<param name="inputFacilitiesFile" value="null" />
		<param name="inputFacilityAttributesFile" value="null" />
		<param name="insistingOnUsingDeprecatedFacilitiesAttributeFile" value="false" />
	</module>
	<module name="global" >
		<param name="coordinateSystem" value="Atlantis" />
		<param name="defaultDelimiter" value=";" />
		<param name="insistingOnDeprecatedConfigVersion" value="true" />
		<!-- "global" number of threads.  This number is used, e.g., for replanning, but NOT in QSim.  This can typically be set to as many cores as you have available, or possibly even slightly more. -->
		<param name="numberOfThreads" value="2" />
		<param name="randomSeed" value="4711" />
	</module>
	<module name="hermes" >
		<!-- Simulation End Time -->
		<param name="endTime" value="30:00:00" />
		<param name="flowCapacityFactor" value="1.0" />
		<param name="mainMode" value="car" />
		<param name="storageCapacityFactor" value="1.0" />
		<!-- time in seconds.  Time after which the frontmost vehicle on a link is called `stuck' if it does not move. Set to Integer.MAX_VALUE to disable this behavior -->
		<param name="stuckTime" value="10" />
		<!-- treats PT as deterministic. PT vehicles will run with a steady speed. Should be used with separate network layers for PT and other network modes. -->
		<param name="useDeterministicPt" value="false" />
	</module>
	<module name="households" >
		<param name="inputFile" value="null" />
		<param name="inputHouseholdAttributesFile" value="null" />
		<param name="insistingOnUsingDeprecatedHouseholdsAttributeFile" value="false" />
	</module>
	<module name="linkStats" >
		<!-- Specifies over how many iterations the link volumes should be averaged that are used for the link statistics. Use 1 or 0 to only use the link volumes of a single iteration. This values cannot be larger than the value specified for writeLinkStatsInterval -->
		<param name="averageLinkStatsOverIterations" value="5" />
		<!-- Specifies how often the link stats should be calculated and written. Use 0 to disable the generation of link stats. -->
		<param name="writeLinkStatsInterval" value="50" />
	</module>
	<module name="multiModeDrt" >
		<parameterset type="drt" >
			<!-- If true, the startLink is changed to last link in the current schedule, so the taxi starts the next day at the link where it stopped operating the day before. False by default. -->
			<param name="changeStartLinkToLastLinkInSchedule" value="false" />
			<!-- Allows to configure a service area per drt mode. Used with serviceArea Operational Scheme -->
			<param name="drtServiceAreaShapeFile" value="null" />
			<!-- Idle vehicles return to the nearest of all start links. See: DvrpVehicle.getStartLink() -->
			<param name="idleVehiclesReturnToDepots" value="false" />
			<!-- Defines the maximum allowed absolute detour in seconds of the maxTravelTime estimation function (optimisation constraint), i.e. min(unsharedRideTime + maxAbsoluteDetour, maxTravelTimeAlpha * unsharedRideTime + maxTravelTimeBeta). maxAbsoluteDetour should not be smaller than 0. and should be higher than the offset maxTravelTimeBeta. -->
			<param name="maxAbsoluteDetour" value="Infinity" />
			<!-- Defines the slope of the maxTravelTime estimation function (optimisation constraint), i.e. min(unsharedRideTime + maxAbsoluteDetour, maxTravelTimeAlpha * unsharedRideTime + maxTravelTimeBeta). Alpha should not be smaller than 1. -->
			<param name="maxTravelTimeAlpha" value="1.5" />
			<!-- Defines the shift of the maxTravelTime estimation function (optimisation constraint), i.e. min(unsharedRideTime + maxAbsoluteDetour, maxTravelTimeAlpha * unsharedRideTime + maxTravelTimeBeta). Beta should not be smaller than 0. -->
			<param name="maxTravelTimeBeta" value="1200.0" />
			<!-- Max wait time for the bus to come (optimisation constraint). -->
			<param name="maxWaitTime" value="1200.0" />
			<!-- Maximum beeline distance (in meters) to next stop location in stopbased system for access/egress walk leg to/from drt. If no stop can be found within this maximum distance will return null (in most cases caught by fallback routing module). -->
			<param name="maxWalkDistance" value="1.7976931348623157E308" />
			<!-- Mode which will be handled by PassengerEngine and VrpOptimizer (passengers'/customers' perspective) -->
			<param name="mode" value="drt" />
			<!-- Number of threads used for parallel evaluation of request insertion into existing schedules. Scales well up to 4, due to path data provision, the most computationally intensive part, using up to 4 threads. Default value is the number of cores available to JVM. -->
			<param name="numberOfThreads" value="20" />
			<!-- Operational Scheme, either of door2door, stopbased or serviceAreaBased. door2door by default -->
			<param name="operationalScheme" value="door2door" />
			<!-- If true, the max travel and wait times of a submitted request are considered hard constraints (the request gets rejected if one of the constraints is violated). If false, the max travel and wait times are considered soft constraints (insertion of a request that violates one of the constraints is allowed, but its cost is increased by additional penalty to make it relatively less attractive). Penalisation of insertions can be customised by injecting a customised InsertionCostCalculator.PenaltyCalculator -->
			<param name="rejectRequestIfMaxWaitOrTravelTimeViolated" value="true" />
			<!-- Bus stop duration. Must be positive. -->
			<param name="stopDuration" value="60.0" />
			<!-- Store planned unshared drt route as a link sequence -->
			<param name="storeUnsharedPath" value="false" />
			<!-- Stop locations file (transit schedule format, but without lines) for DRT stops. Used only for the stopbased mode -->
			<param name="transitStopFile" value="null" />
			<!-- Limit the operation of vehicles to links (of the 'dvrp_routing' network) with 'allowedModes' containing this 'mode'. For backward compatibility, the value is set to false by default - this means that the vehicles are allowed to operate on all links of the 'dvrp_routing' network. The 'dvrp_routing' is defined by DvrpConfigGroup.networkModes) -->
			<param name="useModeFilteredSubnetwork" value="false" />
			<!-- An XML file specifying the vehicle fleet. The file format according to dvrp_vehicles_v1.dtd If not provided, the vehicle specifications will be created from matsim vehicle file or provided via a custom binding. See FleetModule. -->
			<param name="vehiclesFile" value="drt-vehicles/fleet-size-300.xml" />
			<!-- Writes out detailed DRT customer stats in each iteration. True by default. -->
			<param name="writeDetailedCustomerStats" value="true" />
			<parameterset type="ExtensiveInsertionSearch" >
				<param name="admissibleBeelineSpeedFactor" value="1.0" />
				<param name="nearestInsertionsAtEndLimit" value="10" />
			</parameterset>
			<parameterset type="drtfare" >
				<!-- Basefare per trip (positive or zero value) -->
				<param name="basefare" value="0.5" />
				<!-- Daily subscription fee (positive or zero value) -->
				<param name="dailySubscriptionFee" value="0.0" />
				<!-- drt fare per meter (positive or zero value) -->
				<param name="distanceFare_m" value="2.0E-4" />
				<!-- Minimum fare per trip (paid instead of the sum of base, time and distance fare if that sum would be lower than the minimum fare, positive or zero value). -->
				<param name="minFarePerTrip" value="2.0" />
				<!-- drt fare per hour (positive or zero value) -->
				<param name="timeFare_h" value="3.6" />
			</parameterset>
			<parameterset type="rebalancing" >
				<!-- Specifies how often empty vehicle rebalancing is executed. Must be positive. Default is 1800 s. Expects an Integer Value -->
				<param name="interval" value="1800" />
				<!-- Maximum remaining time before busy vehicle becomes idle to be considered as soon-idle vehicle. Default is 900 s. In general should be lower than interval (e.g. 0.5 x interval) -->
				<param name="maxTimeBeforeIdle" value="900.0" />
				<!-- Minimum remaining service time of an idle/busy vehicle to be considered as rebalancable/soon-idle (respectively). Default is 3600 s. In general, should be higher than interval (e.g. 2 x interval). -->
				<param name="minServiceTime" value="3600.0" />
				<parameterset type="minCostFlowRebalancingStrategy" >
					<!-- Defines the time horizon for predicting the demand. Used when 'zonalDemandEstimatorType' is not set to 'None'. Default value is 1800 s. -->
					<param name="demandEstimationPeriod" value="1800" />
					<!-- Defines the calculator used for computing rebalancing targets per each zone (i.e. number of the desired vehicles). Can be one of [EstimatedDemand, EqualRebalancableVehicleDistribution, EqualVehicleDensity, EqualVehiclesToPopulationRatio]. Current default is EstimatedDemand -->
					<param name="rebalancingTargetCalculatorType" value="EstimatedDemand" />
					<!-- alpha coefficient in linear target calculation. In general, should be lower than 1.0 to prevent over-reacting and high empty mileage. -->
					<param name="targetAlpha" value="0.8" />
					<!-- beta constant in linear target calculation. In general, should be lower than 1.0 to prevent over-reacting and high empty mileage. -->
					<param name="targetBeta" value="0.8" />
					<!-- Defines the methodology for demand estimation. Can be one of [PreviousIterationDemand, None]. Current default is PreviousIterationDemand -->
					<param name="zonalDemandEstimatorType" value="PreviousIterationDemand" />
				</parameterset>
			</parameterset>
			<parameterset type="zonalSystem" >
				<!-- size of square cells used for demand aggregation. Depends on demand, supply and network. Often used with values in the range of 500 - 2000 m -->
				<param name="cellSize" value="2000.0" />
				<!-- Defines how the target link of a zone is determined (e.g. for rebalancing). Possible values are [random,mostCentral]. Default behavior is mostCentral, where all vehicles are sent to the same link. -->
				<param name="zoneTargetLinkSelection" value="mostCentral" />
				<!-- Logic for generation of zones for the DRT zonal system. Value can be: [GridFromNetwork, ShapeFile]. -->
				<param name="zonesGeneration" value="GridFromNetwork" />
				<!-- allows to configure zones. Used with zonesGeneration=ShapeFile -->
				<param name="zonesShapeFile" value="null" />
			</parameterset>
		</parameterset>
	</module>
	<module name="network" >
		<!-- The Coordinates Reference System in which the coordinates are expressed in the input file. At import, the coordinates will be converted to the coordinate system defined in "global", and willbe converted back at export. If not specified, no conversion happens. -->
		<param name="inputCRS" value="null" />
		<param name="inputChangeEventsFile" value="null" />
		<param name="inputNetworkFile" value="network.xml.gz" />
		<param name="laneDefinitionsFile" value="null" />
		<param name="timeVariantNetwork" value="false" />
	</module>
	<module name="otfvis" >
		<!-- The (initial) size of the agents.  Only a range of numbers is allowed, otherwise otfvis aborts rather ungracefully, or displays no agents at all. -->
		<param name="agentSize" value="120.0" />
		<!-- coloring scheme for otfvis.  Currently (2012) allowed values: standard bvg bvg2 byId gtfs taxicab infection -->
		<param name="coloringScheme" value="taxicab" />
		<!-- If non-moving items (e.g. agents at activities, at bus stops, etc.) should be showed.  May affect all non-moving items. -->
		<param name="drawNonMovingItems" value="true" />
		<param name="drawTransitFacilities" value="true" />
		<param name="drawTransitFacilityIds" value="true" />
		<param name="leftMouseFunc" value="Zoom" />
		<!-- The (initial) width of the links of the network. Use positive floating point values. -->
		<param name="linkWidth" value="30.0" />
		<!-- Link width is proportional to `numberOfLanes' or to `capacity'. -->
		<param name="linkwidthIsProportionalTo" value="numberOfLanes" />
		<!-- URL to get WMS tiles from. For a local GeoServer instance, use http://localhost:8080/geoserver/wms?service=WMS& -->
		<param name="mapBaseURL" value="" />
		<!-- The WMS layer to display. For GeoServer and a layer called clipped in workspace mz, use mz:clipped -->
		<param name="mapLayer" value="" />
		<!-- Render everything on top of map tiles. Default: From tiles.openstreetmap.org -->
		<param name="mapOverlayMode" value="false" />
		<param name="middleMouseFunc" value="Pan" />
		<param name="rightMouseFunc" value="Select" />
		<param name="showTeleportation" value="false" />
	</module>
	<module name="parallelEventHandling" >
		<!-- Estimated number of events during mobsim run. An optional optimization hint for the framework. -->
		<param name="estimatedNumberOfEvents" value="null" />
		<!-- Size of the events Queue. Increase for very large scenarios -->
		<param name="eventsQueueSize" value="131072" />
		<!-- Number of threads for parallel events handler. _null_ means the framework decides by itself. 0 is currently not possible. -->
		<param name="numberOfThreads" value="null" />
		<!-- If enabled, each event handler is assigned to its own thread. Note that enabling this feature disabled the numberOfThreads option! This feature is still experimental! -->
		<param name="oneThreadPerHandler" value="false" />
		<!-- If enabled, it is ensured that all events that are created during a time step of the mobility simulation are processed before the next time step is simulated. E.g. neccessary when within-day replanning is used. -->
		<param name="synchronizeOnSimSteps" value="true" />
	</module>
	<module name="planCalcScore" >
		<!-- logit model scale parameter. default: 1.  Has name and default value for historical reasons (see Bryan Raney's phd thesis). -->
		<param name="BrainExpBeta" value="1.0" />
		<param name="PathSizeLogitBeta" value="1.0" />
		<!-- fraction of iterations at which MSA score averaging is started. The matsim theory department suggests to use this together with switching off choice set innovation (where a similar switch exists), but it has not been tested yet. -->
		<param name="fractionOfIterationsToStartScoreMSA" value="null" />
		<!-- new_score = (1-learningRate)*old_score + learningRate * score_from_mobsim.  learning rates close to zero emulate score averaging, but slow down initial convergence -->
		<param name="learningRate" value="1.0" />
		<!-- There used to be a plateau between duration=0 and duration=zeroUtilityDuration. This caused durations to evolve to zero once they were below zeroUtilityDuration, causing problems.  Only use this switch if you need to be backwards compatible with some old results.  (changed nov'13) -->
		<param name="usingOldScoringBelowZeroUtilityDuration" value="false" />
		<!-- write a plans file in each iteration directory which contains what each agent actually did, and the score it received. -->
		<param name="writeExperiencedPlans" value="false" />
		<parameterset type="scoringParameters" >
			<param name="earlyDeparture" value="-0.0" />
			<param name="lateArrival" value="-18.0" />
			<param name="marginalUtilityOfMoney" value="1.0" />
			<param name="performing" value="6.0" />
			<param name="subpopulation" value="null" />
			<param name="utilityOfLineSwitch" value="-1.0" />
			<param name="waiting" value="-0.0" />
			<param name="waitingPt" value="-6.0" />
			<parameterset type="activityParams" >
				<param name="activityType" value="dummy" />
				<param name="closingTime" value="undefined" />
				<param name="earliestEndTime" value="undefined" />
				<param name="latestStartTime" value="undefined" />
				<param name="minimalDuration" value="undefined" />
				<param name="openingTime" value="undefined" />
				<param name="priority" value="1.0" />
				<param name="scoringThisActivityAtAll" value="true" />
				<!-- typical duration of activity.  needs to be defined and non-zero.  in sec. -->
				<param name="typicalDuration" value="02:00:00" />
				<!-- method to compute score at typical duration.  Options: | uniform | relative | Use uniform for backwards compatibility (all activities same score; higher proba to drop long acts). -->
				<param name="typicalDurationScoreComputation" value="relative" />
			</parameterset>
			<parameterset type="activityParams" >
				<param name="activityType" value="car interaction" />
				<param name="closingTime" value="undefined" />
				<param name="earliestEndTime" value="undefined" />
				<param name="latestStartTime" value="undefined" />
				<param name="minimalDuration" value="undefined" />
				<param name="openingTime" value="undefined" />
				<param name="priority" value="1.0" />
				<param name="scoringThisActivityAtAll" value="false" />
				<param name="typicalDuration" value="undefined" />
				<param name="typicalDurationScoreComputation" value="relative" />
			</parameterset>
			<parameterset type="activityParams" >
				<param name="activityType" value="pt interaction" />
				<param name="closingTime" value="undefined" />
				<param name="earliestEndTime" value="undefined" />
				<param name="latestStartTime" value="undefined" />
				<param name="minimalDuration" value="undefined" />
				<param name="openingTime" value="undefined" />
				<param name="priority" value="1.0" />
				<param name="scoringThisActivityAtAll" value="false" />
				<param name="typicalDuration" value="undefined" />
				<param name="typicalDurationScoreComputation" value="relative" />
			</parameterset>
			<parameterset type="activityParams" >
				<param name="activityType" value="bike interaction" />
				<param name="closingTime" value="undefined" />
				<param name="earliestEndTime" value="undefined" />
				<param name="latestStartTime" value="undefined" />
				<param name="minimalDuration" value="undefined" />
				<param name="openingTime" value="undefined" />
				<param name="priority" value="1.0" />
				<param name="scoringThisActivityAtAll" value="false" />
				<param name="typicalDuration" value="undefined" />
				<param name="typicalDurationScoreComputation" value="relative" />
			</parameterset>
			<parameterset type="activityParams" >
				<param name="activityType" value="drt interaction" />
				<param name="closingTime" value="undefined" />
				<param name="earliestEndTime" value="undefined" />
				<param name="latestStartTime" value="undefined" />
				<param name="minimalDuration" value="undefined" />
				<param name="openingTime" value="undefined" />
				<param name="priority" value="1.0" />
				<param name="scoringThisActivityAtAll" value="false" />
				<param name="typicalDuration" value="undefined" />
				<param name="typicalDurationScoreComputation" value="relative" />
			</parameterset>
			<parameterset type="activityParams" >
				<param name="activityType" value="taxi interaction" />
				<param name="closingTime" value="undefined" />
				<param name="earliestEndTime" value="undefined" />
				<param name="latestStartTime" value="undefined" />
				<param name="minimalDuration" value="undefined" />
				<param name="openingTime" value="undefined" />
				<param name="priority" value="1.0" />
				<param name="scoringThisActivityAtAll" value="false" />
				<param name="typicalDuration" value="undefined" />
				<param name="typicalDurationScoreComputation" value="relative" />
			</parameterset>
			<parameterset type="activityParams" >
				<param name="activityType" value="other interaction" />
				<param name="closingTime" value="undefined" />
				<param name="earliestEndTime" value="undefined" />
				<param name="latestStartTime" value="undefined" />
				<param name="minimalDuration" value="undefined" />
				<param name="openingTime" value="undefined" />
				<param name="priority" value="1.0" />
				<param name="scoringThisActivityAtAll" value="false" />
				<param name="typicalDuration" value="undefined" />
				<param name="typicalDurationScoreComputation" value="relative" />
			</parameterset>
			<parameterset type="activityParams" >
				<param name="activityType" value="walk interaction" />
				<param name="closingTime" value="undefined" />
				<param name="earliestEndTime" value="undefined" />
				<param name="latestStartTime" value="undefined" />
				<param name="minimalDuration" value="undefined" />
				<param name="openingTime" value="undefined" />
				<param name="priority" value="1.0" />
				<param name="scoringThisActivityAtAll" value="false" />
				<param name="typicalDuration" value="undefined" />
				<param name="typicalDurationScoreComputation" value="relative" />
			</parameterset>
			<parameterset type="activityParams" >
				<param name="activityType" value="work" />
				<param name="closingTime" value="17:00:00" />
				<param name="earliestEndTime" value="undefined" />
				<param name="latestStartTime" value="09:00:00" />
				<param name="minimalDuration" value="undefined" />
				<param name="openingTime" value="06:00:00" />
				<param name="priority" value="1.0" />
				<param name="scoringThisActivityAtAll" value="true" />
				<param name="typicalDuration" value="08:00:00" />
				<param name="typicalDurationScoreComputation" value="relative" />
			</parameterset>
			<parameterset type="activityParams" >
				<param name="activityType" value="home" />
				<param name="closingTime" value="undefined" />
				<param name="earliestEndTime" value="undefined" />
				<param name="latestStartTime" value="undefined" />
				<param name="minimalDuration" value="undefined" />
				<param name="openingTime" value="undefined" />
				<param name="priority" value="1.0" />
				<param name="scoringThisActivityAtAll" value="true" />
				<param name="typicalDuration" value="12:00:00" />
				<param name="typicalDurationScoreComputation" value="relative" />
			</parameterset>
			<parameterset type="activityParams" >
				<param name="activityType" value="ride interaction" />
				<param name="closingTime" value="undefined" />
				<param name="earliestEndTime" value="undefined" />
				<param name="latestStartTime" value="undefined" />
				<param name="minimalDuration" value="undefined" />
				<param name="openingTime" value="undefined" />
				<param name="priority" value="1.0" />
				<param name="scoringThisActivityAtAll" value="false" />
				<param name="typicalDuration" value="undefined" />
				<param name="typicalDurationScoreComputation" value="relative" />
			</parameterset>
			<parameterset type="modeParams" >
				<!-- [utils] alternative-specific constant.  Normally per trip, but that is probably buggy for multi-leg trips. -->
				<param name="constant" value="0.0" />
				<!-- [unit_of_money/day] Fixed cost of mode, per day. -->
				<param name="dailyMonetaryConstant" value="0.0" />
				<!-- [utils] daily utility constant. default=0 to be backwards compatible -->
				<param name="dailyUtilityConstant" value="0.0" />
				<!-- [utils/m] utility of traveling (e.g. walking or driving) per m, normally negative.  this is on top of the time (dis)utility. -->
				<param name="marginalUtilityOfDistance_util_m" value="0.0" />
				<!-- [utils/hr] additional marginal utility of traveling.  normally negative.  this comes on top of the opportunity cost of time -->
				<param name="marginalUtilityOfTraveling_util_hr" value="-6.0" />
				<param name="mode" value="car" />
				<!-- [unit_of_money/m] conversion of distance into money. Normally negative. -->
				<param name="monetaryDistanceRate" value="0.0" />
			</parameterset>
			<parameterset type="modeParams" >
				<param name="constant" value="0.0" />
				<param name="dailyMonetaryConstant" value="0.0" />
				<param name="dailyUtilityConstant" value="0.0" />
				<param name="marginalUtilityOfDistance_util_m" value="0.0" />
				<param name="marginalUtilityOfTraveling_util_hr" value="-6.0" />
				<param name="mode" value="pt" />
				<param name="monetaryDistanceRate" value="0.0" />
			</parameterset>
			<parameterset type="modeParams" >
				<param name="constant" value="0.0" />
				<param name="dailyMonetaryConstant" value="0.0" />
				<param name="dailyUtilityConstant" value="0.0" />
				<param name="marginalUtilityOfDistance_util_m" value="0.0" />
				<param name="marginalUtilityOfTraveling_util_hr" value="-6.0" />
				<param name="mode" value="walk" />
				<param name="monetaryDistanceRate" value="0.0" />
			</parameterset>
			<parameterset type="modeParams" >
				<param name="constant" value="0.0" />
				<param name="dailyMonetaryConstant" value="0.0" />
				<param name="dailyUtilityConstant" value="0.0" />
				<param name="marginalUtilityOfDistance_util_m" value="0.0" />
				<param name="marginalUtilityOfTraveling_util_hr" value="-6.0" />
				<param name="mode" value="bike" />
				<param name="monetaryDistanceRate" value="0.0" />
			</parameterset>
			<parameterset type="modeParams" >
				<param name="constant" value="0.0" />
				<param name="dailyMonetaryConstant" value="0.0" />
				<param name="dailyUtilityConstant" value="0.0" />
				<param name="marginalUtilityOfDistance_util_m" value="0.0" />
				<param name="marginalUtilityOfTraveling_util_hr" value="-6.0" />
				<param name="mode" value="ride" />
				<param name="monetaryDistanceRate" value="0.0" />
			</parameterset>
			<parameterset type="modeParams" >
				<param name="constant" value="0.0" />
				<param name="dailyMonetaryConstant" value="0.0" />
				<param name="dailyUtilityConstant" value="0.0" />
				<param name="marginalUtilityOfDistance_util_m" value="0.0" />
				<param name="marginalUtilityOfTraveling_util_hr" value="-6.0" />
				<param name="mode" value="other" />
				<param name="monetaryDistanceRate" value="0.0" />
			</parameterset>
			<parameterset type="modeParams" >
				<param name="constant" value="0.0" />
				<param name="dailyMonetaryConstant" value="0.0" />
				<param name="dailyUtilityConstant" value="0.0" />
				<param name="marginalUtilityOfDistance_util_m" value="0.0" />
				<param name="marginalUtilityOfTraveling_util_hr" value="0.0" />
				<param name="mode" value="drt" />
				<param name="monetaryDistanceRate" value="0.0" />
			</parameterset>
		</parameterset>
	</module>
	<module name="plans" >
		<!-- String: minOfDurationAndEndTime tryEndTimeThenDuration endTimeOnly. Anything besides minOfDurationAndEndTime will internally use a different (simpler) version of the TimeAllocationMutator. -->
		<param name="activityDurationInterpretation" value="tryEndTimeThenDuration" />
		<!-- Possible values: reject,useMainModeIdentifier -->
		<param name="handlingOfPlansWithoutRoutingMode" value="reject" />
		<!-- The Coordinates Reference System in which the coordinates are expressed in the input file. At import, the coordinates will be converted to the coordinate system defined in "global", and willbe converted back at export. If not specified, no conversion happens. -->
		<param name="inputCRS" value="null" />
		<param name="inputPersonAttributesFile" value="null" />
		<param name="inputPlansFile" value="plans.xml" />
		<param name="insistingOnUsingDeprecatedPersonAttributeFile" value="false" />
		<!-- Defines how routes are stored in memory. Currently supported: LinkNetworkRoute, MediumCompressedNetworkRoute, HeavyCompressedNetworkRoute. -->
		<param name="networkRouteType" value="LinkNetworkRoute" />
		<!-- (not tested) will remove plan attributes that are presumably not used, such as activityStartTime. default=false. Use with Caution! -->
		<param name="removingUnnecessaryPlanAttributes" value="false" />
		<!-- Defines how departure times are interpreted in rerouting applications. If set to 'ignoreDelays', the departure time of a trip when routing along a plan will always be the nominal (plan-based) activity end time. If set to 'shiftActivityEndTimes', routing along a plan will accumulate travel times and shift activity end times if necessary -->
		<param name="tripDurationHandling" value="ignoreDelays" />
	</module>
	<module name="planscalcroute" >
		<!-- Defines how access and egress to main mode is simulated. Either of [none, accessEgressModeToLink, walkConstantTimeToLink, accessEgressModeToLinkPlusTimeConstant], Current default=none which means no access or egress trips are simulated. -->
		<param name="accessEgressType" value="none" />
		<!-- Some typical teleportation routing params are set by default, such as for walk and bike.  Setting this switch to "true" will clear them.  Note that this will also clear settings for helper modes such as for non_network_walk -->
		<param name="clearDefaultTeleportedModeParams" value="false" />
		<!-- All the modes for which the router is supposed to generate network routes (like car) -->
		<param name="networkModes" value="car" />
		<!-- strength of the randomness for the utility of money in routing under toll.  Leads to Pareto-optimal route with randomly drawn money-vs-other-attributes tradeoff. Technically the width parameter of a log-normal distribution. 3.0 seems to be a good value.  -->
		<param name="routingRandomness" value="3.0" />
		<parameterset type="teleportedModeParameters" >
			<param name="beelineDistanceFactor" value="1.3" />
			<param name="mode" value="bike" />
			<!-- Free-speed factor for a teleported mode. Travel time = teleportedModeFreespeedFactor * <freespeed car travel time>. Insert a line like this for every such mode. Please do not set teleportedModeFreespeedFactor as well as teleportedModeSpeed for the same mode, but if you do, +teleportedModeFreespeedFactor wins over teleportedModeSpeed. -->
			<param name="teleportedModeFreespeedFactor" value="null" />
			<!-- Speed for a teleported mode. Travel time = (<beeline distance> * beelineDistanceFactor) / teleportedModeSpeed. Insert a line like this for every such mode. -->
			<param name="teleportedModeSpeed" value="4.166666666666667" />
		</parameterset>
		<parameterset type="teleportedModeParameters" >
			<param name="beelineDistanceFactor" value="1.3" />
			<param name="mode" value="walk" />
			<param name="teleportedModeFreespeedFactor" value="null" />
			<param name="teleportedModeSpeed" value="0.8333333333333333" />
		</parameterset>
		<parameterset type="teleportedModeParameters" >
			<param name="beelineDistanceFactor" value="1.3" />
			<param name="mode" value="non_network_walk" />
			<param name="teleportedModeFreespeedFactor" value="null" />
			<param name="teleportedModeSpeed" value="0.8333333333333333" />
		</parameterset>
		<parameterset type="teleportedModeParameters" >
			<param name="beelineDistanceFactor" value="1.3" />
			<param name="mode" value="ride" />
			<param name="teleportedModeFreespeedFactor" value="1.0" />
			<param name="teleportedModeSpeed" value="null" />
		</parameterset>
		<parameterset type="teleportedModeParameters" >
			<param name="beelineDistanceFactor" value="1.3" />
			<param name="mode" value="pt" />
			<param name="teleportedModeFreespeedFactor" value="2.0" />
			<param name="teleportedModeSpeed" value="null" />
		</parameterset>
	</module>
	<module name="ptCounts" >
		<!-- factor by which to re-scale the simulated values.  necessary when simulation runs with something different from 100%.  needs to be adapted manually -->
		<param name="countsScaleFactor" value="1.0" />
		<!-- distance to distanceFilterCenterNode to include counting stations. The unit of distance is the Euclidean distance implied by the coordinate system -->
		<param name="distanceFilter" value="null" />
		<!-- node id for center node of distance filter -->
		<param name="distanceFilterCenterNode" value="null" />
		<!-- input file containing the alighting (getting off) counts for pt -->
		<param name="inputAlightCountsFile" value="null" />
		<!-- input file containing the boarding (getting on) counts for pt -->
		<param name="inputBoardCountsFile" value="null" />
		<!-- input file containing the occupancy counts for pt -->
		<param name="inputOccupancyCountsFile" value="null" />
		<!-- possible values: `html', `txt', `all' -->
		<param name="outputformat" value="null" />
		<!-- every how many iterations (starting with 0) counts comparisons are generated -->
		<param name="ptCountsInterval" value="10" />
	</module>
	<module name="qsim" >
		<param name="endTime" value="24:00:00" />
		<!-- If set to withLinkAttributes snapshots will only be generated for links which include generateSnapshotForLink as attribute key. Default is no filtering. -->
		<param name="filterSnapshots" value="no" />
		<param name="flowCapacityFactor" value="1.0" />
		<!-- decides if waiting vehicles enter the network after or before the already driving vehicles were moved. Default: false -->
		<param name="insertingWaitingVehiclesBeforeDrivingVehicles" value="true" />
		<!-- If link dynamics is set as SeepageQ, set to false if all seep modes should perform seepage. Default is true (better option). -->
		<param name="isRestrictingSeepage" value="true" />
		<!-- If link dynamics is set as SeepageQ, set to true if seep mode do not consumes any space on the link. Default is false. -->
		<param name="isSeepModeStorageFree" value="false" />
		<!-- default: FIFO; options: FIFO PassingQ SeepageQ -->
		<param name="linkDynamics" value="FIFO" />
		<!-- The (initial) width of the links of the network. Use positive floating point values. This is used only for visualisation. -->
		<param name="linkWidth" value="30.0" />
		<!-- [comma-separated list] Defines which modes are congested modes. Technically, these are the modes that the departure handler of the netsimengine handles.  Effective cell size, effective lane width, flow capacity factor, and storage capacity factor need to be set with diligence.  Need to be vehicular modes to make sense. -->
		<param name="mainMode" value="car" />
		<!-- Shortens a link in the visualization, i.e. its start and end point are moved into towards the center. Does not affect traffic flow.  -->
		<param name="nodeOffset" value="0.0" />
		<!-- Number of threads used for the QSim.  Note that this setting is independent from the "global" threads setting.  In contrast to earlier versions, the non-parallel special version is no longer there. -->
		<param name="numberOfThreads" value="1" />
		<!-- Boolean. `true': stuck vehicles are removed, aborting the plan; `false': stuck vehicles are forced into the next link. `false' is probably the better choice. -->
		<param name="removeStuckVehicles" value="false" />
		<!-- If link dynamics is set as SeepageQ, set a seep mode. Default is bike. -->
		<param name="seepMode" value="bike" />
		<!-- Possible values: minOfEndtimeAndMobsimFinished,onlyUseEndtime -->
		<param name="simEndtimeInterpretation" value="null" />
		<!-- Options: maxOfStarttimeAndEarliestActivityEnd onlyUseStarttime  -->
		<param name="simStarttimeInterpretation" value="onlyUseStarttime" />
		<!-- snapshotStyle. One of: equiDist queue withHoles withHolesAndShowHoles kinematicWaves  -->
		<param name="snapshotStyle" value="queue" />
		<param name="snapshotperiod" value="00:00:00" />
		<param name="startTime" value="00:00:00" />
		<param name="storageCapacityFactor" value="1.0" />
		<!-- time in seconds.  Time after which the frontmost vehicle on a link is called `stuck' if it does not move. -->
		<param name="stuckTime" value="10.0" />
		<param name="timeStepSize" value="00:00:01" />
		<!-- options: queue withHoles kinematicWaves  -->
		<param name="trafficDynamics" value="queue" />
		<!-- Set this parameter to true if lanes should be used, false if not. -->
		<param name="useLanes" value="false" />
		<!-- If a route does not reference a vehicle, agents will use the vehicle with the same id as their own. -->
		<param name="usePersonIdForMissingVehicleId" value="true" />
		<!-- If false, the qsim accumulates fractional flows up to one flow unit in every time step.  If true, flows are updated only if an agent wants to enter the link or an agent is added to buffer. Default is true. -->
		<param name="usingFastCapacityUpdate" value="true" />
		<!-- Defines what happens if an agent wants to depart, but the specified vehicle is not available. One of: teleport wait exception  -->
		<param name="vehicleBehavior" value="teleport" />
		<!-- If vehicles should all be the same default vehicle, or come from the vehicles file, or something else.  Possible values:  defaultVehicle modeVehicleTypesFromVehiclesData fromVehiclesData -->
		<param name="vehiclesSource" value="defaultVehicle" />
	</module>
	<module name="strategy" >
		<!-- the external executable will be called with a config file as argument.  This is the pathname to a possible skeleton config, to which additional information will be added.  Can be null. -->
		<param name="ExternalExeConfigTemplate" value="null" />
		<!-- time out value (in seconds) after which matsim will consider the external strategy as failed -->
		<param name="ExternalExeTimeOut" value="3600" />
		<!-- root directory for temporary files generated by the external executable. Provided as a service; I don't think this is used by MATSim. -->
		<param name="ExternalExeTmpFileRootDir" value="null" />
		<!-- fraction of iterations where innovative strategies are switched off.  Something like 0.8 should be good.  E.g. if you run from iteration 400 to iteration 500, innovation is switched off at iteration 480 -->
		<param name="fractionOfIterationsToDisableInnovation" value="0.8" />
		<!-- maximum number of plans per agent.  ``0'' means ``infinity''.  Currently (2010), ``5'' is a good number -->
		<param name="maxAgentPlanMemorySize" value="5" />
		<!-- strategyName of PlanSelector for plans removal.  Possible defaults: WorstPlanSelector SelectRandom SelectExpBetaForRemoval ChangeExpBetaForRemoval PathSizeLogitSelectorForRemoval . The current default, WorstPlanSelector is not a good choice from a discrete choice theoretical perspective. Alternatives, however, have not been systematically tested. kai, feb'12 -->
		<param name="planSelectorForRemoval" value="WorstPlanSelector" />
		<parameterset type="strategysettings" >
			<!-- iteration after which strategy will be disabled.  most useful for ``innovative'' strategies (new routes, new times, ...). Normally, better use fractionOfIterationsToDisableInnovation -->
			<param name="disableAfterIteration" value="-1" />
			<!-- path to external executable (if applicable) -->
			<param name="executionPath" value="null" />
			<!-- strategyName of strategy.  Possible default names: SelectRandom BestScore KeepLastSelected ChangeExpBeta SelectExpBeta SelectPathSizeLogit      (selectors), ReRouteTimeAllocationMutatorTimeAllocationMutator_ReRouteChangeSingleTripModeChangeTripModeSubtourModeChoice (innovative strategies). -->
			<param name="strategyName" value="TimeAllocationMutator" />
			<!-- subpopulation to which the strategy applies. "null" refers to the default population, that is, the set of persons for which no explicit subpopulation is defined (ie no subpopulation attribute) -->
			<param name="subpopulation" value="null" />
			<!-- weight of a strategy: for each agent, a strategy will be selected with a probability proportional to its weight -->
			<param name="weight" value="0.1" />
		</parameterset>
	</module>
	<module name="subtourModeChoice" >
		<!-- Only for backwards compatibility.  Defines if only trips from modes list should change mode, or all trips.  Options: fromAllModesToSpecifiedModes fromSpecifiedModesToSpecifiedModes betweenAllAndFewerConstraints  -->
		<param name="behavior" value="fromSpecifiedModesToSpecifiedModes" />
		<!-- Defines the chain-based modes, seperated by commas -->
		<param name="chainBasedModes" value="car,bike" />
		<!-- Defines whether car availability must be considered or not. A agent has no car only if it has no license, or never access to a car -->
		<param name="considerCarAvailability" value="false" />
		<!-- If greater than 0, subtours will also consider coordinates to be at the same location when smaller than set distance. -->
		<param name="coordDistance" value="0.0" />
		<!-- Defines all the modes available, including chain-based modes, seperated by commas -->
		<param name="modes" value="car,pt,bike,walk" />
		<!-- Defines the probability of changing a single trip for a unchained mode instead of subtour. -->
		<param name="probaForRandomSingleTripMode" value="0.0" />
	</module>
	<module name="transit" >
		<!-- The Coordinates Reference System in which the coordinates are expressed in the input file. At import, the coordinates will be converted to the coordinate system defined in "global", and willbe converted back at export. If not specified, no conversion happens. -->
		<param name="inputScheduleCRS" value="null" />
		<param name="insistingOnUsingDeprecatedAttributeFiles" value="false" />
		<!-- The type of transit routing algorithm used, may have the values: [DijkstraBased, SwissRailRaptor] -->
		<param name="routingAlgorithmType" value="SwissRailRaptor" />
		<!-- Optional input file containing additional attributes for transit lines, stored as ObjectAttributes. -->
		<param name="transitLinesAttributesFile" value="null" />
		<!-- Comma-separated list of transportation modes that are handled as transit. Defaults to 'pt'. -->
		<param name="transitModes" value="pt" />
		<!-- Input file containing the transit schedule to be simulated. -->
		<param name="transitScheduleFile" value="null" />
		<!-- Optional input file containing additional attributes for transit stop facilities, stored as ObjectAttributes. -->
		<param name="transitStopsAttributesFile" value="null" />
		<!-- Set this parameter to true if transit should be simulated, false if not. -->
		<param name="useTransit" value="false" />
		<param name="usingTransitInMobsim" value="true" />
		<!-- Input file containing the vehicles used by the departures in the transit schedule. -->
		<param name="vehiclesFile" value="null" />
	</module>
	<module name="transitRouter" >
		<!-- additional time the router allocates when a line switch happens. Can be interpreted as a 'safety' time that agents need to safely transfer from one line to another -->
		<param name="additionalTransferTime" value="0.0" />
		<!-- Factor with which direct walk generalized cost is multiplied before it is compared to the pt generalized cost.  Set to a very high value to reduce direct walk results. -->
		<param name="directWalkFactor" value="1.0" />
		<!-- step size to increase searchRadius if no stops are found -->
		<param name="extensionRadius" value="200.0" />
		<!-- maximum beeline distance between stops that agents could transfer to by walking -->
		<param name="maxBeelineWalkConnectionDistance" value="100.0" />
		<!-- the radius in which stop locations are searched, given a start or target coordinate -->
		<param name="searchRadius" value="1000.0" />
	</module>
	<module name="travelTimeCalculator" >
		<!-- (only for backwards compatibility; only used if separateModes==false && + filterModes==true)  Transport modes that will be respected by the travel time collector. 'car' is default which includes also buses from the pt simulation module. -->
		<param name="analyzedModes" value="car" />
		<param name="calculateLinkToLinkTravelTimes" value="false" />
		<param name="calculateLinkTravelTimes" value="true" />
		<!-- (only for backwards compatiblity; only used if separateModes==false)  Only modes included in analyzedModes are included. -->
		<param name="filterModes" value="false" />
		<!-- The lenght (in sec) of the time period that is splited into time bins; an additional time bin is created to aggregate all travel times collected after maxTime -->
		<param name="maxTime" value="108000" />
		<!-- (only for backwards compatibility) If false, link travel times are measured and aggregated over all vehicles using the link. -->
		<param name="separateModes" value="true" />
		<!-- How to deal with congested time bins that have no link entry events. `optimistic' assumes free speed (too optimistic); 'experimental_LastMile' is experimental and probably too pessimistic. -->
		<param name="travelTimeAggregator" value="optimistic" />
		<!-- The size of the time bin (in sec) into which the link travel times are aggregated for the router -->
		<param name="travelTimeBinSize" value="900" />
		<!-- possible values: TravelTimeCalculatorArray TravelTimeCalculatorHashMap  -->
		<param name="travelTimeCalculator" value="TravelTimeCalculatorArray" />
		<!-- How to deal with link entry times at different positions during the time bin. Currently supported: average, linearinterpolation -->
		<param name="travelTimeGetter" value="average" />
	</module>
	<module name="vehicles" >
		<param name="vehiclesFile" value="null" />
	</module>
	<module name="vspExperimental" >
		<!-- (do not use except of you have to) There was a problem with pt interaction scoring.  Some people solved it by overwriting the parameters of the pt interaction activity type.  Doing this now throws an Exception.  If you still insist on doing this, set the following to true. -->
		<param name="isAbleToOverwritePtInteractionParams" value="false" />
		<param name="isGeneratingBoardingDeniedEvent" value="false" />
		<!-- if an approximation of the opportunity cost of time is included into the radius calculation for location choice.`true' will be faster, but it is an approximation.  Default is `true'; `false' is available for backwards compatibility. -->
		<param name="isUsingOpportunityCostOfTimeForLocationChoice" value="true" />
		<param name="logitScaleParamForPlansRemoval" value="1.0" />
		<!-- Options: | ignore | info | warn | abort | .  When violating VSP defaults, this results in nothing, logfile infos, logfile warnings, or aborts.  Members of VSP should use `abort' or talk to kai. -->
		<param name="vspDefaultsCheckingLevel" value="ignore" />
		<!-- if true then writes output_events in output directory.  default is `false'. Will only work when lastIteration is multiple of events writing interval -->
		<param name="writingOutputEvents" value="true" />
	</module>

</config>

2026-06-18T12:19:52,541  INFO ControlerUtils:85 Complete config dump done.
2026-06-18T12:19:52,542  INFO ControlerUtils:86 Checking consistency of config...
2026-06-18T12:19:52,542  WARN ControlerConfigGroup:439 setting overwriting behavior to overwriteExistingFiles
2026-06-18T12:19:52,543  WARN ControlerConfigGroup:440 this is not recommended, as it might result in a directory containing output from several model runs
2026-06-18T12:19:52,543  WARN ControlerConfigGroup:441 prefer the options deleteDirectoryIfExists or failIfDirectoryExists
2026-06-18T12:19:52,543  WARN DrtConfigGroup:248 qsim.endTime should be specified and qsim.simEndtimeInterpretation should be 'onlyUseEndtime' if postponed request rejection is allowed. Otherwise, rejected passengers (who are stuck endlessly waiting for a DRT vehicle) will prevent QSim from stopping. Keep also in mind that not setting an end time may result in agents attempting to travel without vehicles being available.
2026-06-18T12:19:52,544  WARN DrtConfigGroup:268 Consider increasing global.numberOfThreads to at least the value of drt.numberOfThreads in order to speed up the DRT route update during the replanning phase.
2026-06-18T12:19:52,545  INFO VspConfigConsistencyCheckerImpl:61 NOT running vsp config consistency check because vsp defaults checking level is set to IGNORE
2026-06-18T12:19:52,554  INFO ControlerUtils:88 Checking consistency of config done.
2026-06-18T12:19:52,555  INFO PrepareForSimImpl:122 Network seems to be multimodal. Create car-only network which is handed over to PersonPrepareForSim.
2026-06-18T12:19:52,556  INFO NetworkImpl:165  node # 1
2026-06-18T12:19:52,556  INFO NetworkImpl:165  node # 4
2026-06-18T12:19:52,556  INFO NetworkImpl:165  node # 16
2026-06-18T12:19:52,557  INFO NetworkImpl:165  node # 64
2026-06-18T12:19:52,558  INFO NetworkImpl:165  node # 256
2026-06-18T12:19:52,558  INFO NetworkImpl:165  node # 1024
2026-06-18T12:19:52,560  INFO NetworkImpl:165  node # 4096
2026-06-18T12:19:52,561  INFO NetworkImpl:161  link # 1
2026-06-18T12:19:52,561  INFO NetworkImpl:161  link # 4
2026-06-18T12:19:52,561  INFO NetworkImpl:161  link # 16
2026-06-18T12:19:52,562  INFO NetworkImpl:161  link # 64
2026-06-18T12:19:52,562  INFO NetworkImpl:161  link # 256
2026-06-18T12:19:52,565  INFO NetworkImpl:161  link # 1024
2026-06-18T12:19:52,574  INFO NetworkImpl:161  link # 4096
2026-06-18T12:19:52,600  WARN PrepareForSimImpl:229 'usePersonIdForMissingVehicleId' is deprecated. It will be removed soon.
2026-06-18T12:19:52,607  INFO Counter:70 [VehiclesImpl] added vehicle # 1
2026-06-18T12:19:52,608  INFO Counter:70 [VehiclesImpl] added vehicle # 2
2026-06-18T12:19:52,609  INFO Counter:70 [VehiclesImpl] added vehicle # 4
2026-06-18T12:19:52,609  INFO Counter:70 [VehiclesImpl] added vehicle # 8
2026-06-18T12:19:52,610  INFO Counter:70 [VehiclesImpl] added vehicle # 16
2026-06-18T12:19:52,610  INFO Counter:70 [VehiclesImpl] added vehicle # 32
2026-06-18T12:19:52,611  INFO Counter:70 [VehiclesImpl] added vehicle # 64
2026-06-18T12:19:52,613  INFO Counter:70 [VehiclesImpl] added vehicle # 128
2026-06-18T12:19:52,616  INFO Counter:70 [VehiclesImpl] added vehicle # 256
2026-06-18T12:19:52,620  INFO Counter:70 [VehiclesImpl] added vehicle # 512
2026-06-18T12:19:52,623  INFO Counter:70 [VehiclesImpl] added vehicle # 1024
2026-06-18T12:19:52,629  INFO Counter:70 [VehiclesImpl] added vehicle # 2048
2026-06-18T12:19:52,639  INFO Counter:70 [VehiclesImpl] added vehicle # 4096
2026-06-18T12:19:52,724  INFO PreProcessDijkstra:119 nodes in dead ends: 1210 (total nodes: 4477). Done in 26 ms
2026-06-18T12:19:52,755  WARN PreProcessEuclidean:60 There are links with stored length smaller than their Euclidean distance in this network. Thus, A* cannot guarantee to calculate the least-cost paths between two nodes.
2026-06-18T12:19:52,760  INFO PreProcessLandmarks:113 Putting landmarks on network...
2026-06-18T12:19:52,767  INFO LandmarkerPieSlices:97 Filling sectors...
2026-06-18T12:19:52,793  INFO LandmarkerPieSlices:108 Refining landmarks...
2026-06-18T12:19:52,806  INFO LandmarkerPieSlices:110 done
2026-06-18T12:19:52,806  INFO PreProcessLandmarks:116 done in 44 ms
2026-06-18T12:19:52,807  INFO PreProcessLandmarks:118 Initializing landmarks data
2026-06-18T12:19:52,811  INFO PreProcessLandmarks:130 Calculating distance from each node to each of the 16 landmarks using 2 threads...
2026-06-18T12:19:52,812  INFO PreProcessLandmarks:140 wait for landmarks Calculator to finish...
2026-06-18T12:19:53,097  INFO PreProcessLandmarks:164 done in 286 ms
2026-06-18T12:19:53,133  INFO NetworkImpl:165  node # 1
2026-06-18T12:19:53,134  INFO NetworkImpl:165  node # 4
2026-06-18T12:19:53,136  INFO NetworkImpl:165  node # 16
2026-06-18T12:19:53,136  INFO NetworkImpl:165  node # 64
2026-06-18T12:19:53,136  INFO NetworkImpl:165  node # 256
2026-06-18T12:19:53,137  INFO NetworkImpl:165  node # 1024
2026-06-18T12:19:53,139  INFO NetworkImpl:165  node # 4096
2026-06-18T12:19:53,140  INFO NetworkImpl:161  link # 1
2026-06-18T12:19:53,140  INFO NetworkImpl:161  link # 4
2026-06-18T12:19:53,140  INFO NetworkImpl:161  link # 16
2026-06-18T12:19:53,141  INFO NetworkImpl:161  link # 64
2026-06-18T12:19:53,142  INFO NetworkImpl:161  link # 256
2026-06-18T12:19:53,144  INFO NetworkImpl:161  link # 1024
2026-06-18T12:19:53,154  INFO NetworkImpl:161  link # 4096
2026-06-18T12:19:53,180  WARN RandomizingTimeDistanceTravelDisutilityFactory:113 There will be no routing randomness. The randomization of the travel disutility requires the monetary distance rate to be different than zero. Continuing anyway.
2026-06-18T12:19:53,194  WARN RandomizingTimeDistanceTravelDisutilityFactory:118 There will be no routing randomness. The randomization of the travel disutility requires the travel time cost rate to be different than zero. Continuing anyway.
2026-06-18T12:19:53,199  INFO RandomizingTimeDistanceTravelDisutilityFactory:86  sigma: 3.0; resulting normalization: 0.011108996538242306
2026-06-18T12:19:53,217  INFO PreProcessDijkstra:119 nodes in dead ends: 1153 (total nodes: 4415). Done in 16 ms
2026-06-18T12:19:53,218  WARN PreProcessEuclidean:60 There are links with stored length smaller than their Euclidean distance in this network. Thus, A* cannot guarantee to calculate the least-cost paths between two nodes.
2026-06-18T12:19:53,222  INFO PreProcessLandmarks:113 Putting landmarks on network...
2026-06-18T12:19:53,225  INFO LandmarkerPieSlices:97 Filling sectors...
2026-06-18T12:19:53,238  INFO LandmarkerPieSlices:108 Refining landmarks...
2026-06-18T12:19:53,241  INFO LandmarkerPieSlices:110 done
2026-06-18T12:19:53,242  INFO PreProcessLandmarks:116 done in 18 ms
2026-06-18T12:19:53,242  INFO PreProcessLandmarks:118 Initializing landmarks data
2026-06-18T12:19:53,245  INFO PreProcessLandmarks:130 Calculating distance from each node to each of the 16 landmarks using 2 threads...
2026-06-18T12:19:53,246  INFO PreProcessLandmarks:140 wait for landmarks Calculator to finish...
2026-06-18T12:19:53,400  INFO PreProcessLandmarks:164 done in 153 ms
2026-06-18T12:19:53,443  INFO RandomizingTimeDistanceTravelDisutilityFactory:86  sigma: 3.0; resulting normalization: 0.011108996538242306
2026-06-18T12:19:53,468  INFO Counter:70 [PersonPrepareForSim] handled person # 1
2026-06-18T12:19:53,468  INFO Counter:70 [PersonPrepareForSim] handled person # 2
2026-06-18T12:19:53,472  INFO Counter:70 [PersonPrepareForSim] handled person # 4
2026-06-18T12:19:53,476  INFO Counter:70 [PersonPrepareForSim] handled person # 8
2026-06-18T12:19:53,483  INFO Counter:70 [PersonPrepareForSim] handled person # 16
2026-06-18T12:19:53,495  INFO Counter:70 [PersonPrepareForSim] handled person # 32
2026-06-18T12:19:53,516  INFO Counter:70 [PersonPrepareForSim] handled person # 64
2026-06-18T12:19:53,553  INFO Counter:70 [PersonPrepareForSim] handled person # 128
2026-06-18T12:19:53,584  INFO Counter:70 [PersonPrepareForSim] handled person # 256
2026-06-18T12:19:53,643  INFO Counter:70 [PersonPrepareForSim] handled person # 512
2026-06-18T12:19:53,780  INFO Counter:70 [PersonPrepareForSim] handled person # 1024
2026-06-18T12:19:54,076  INFO Counter:70 [PersonPrepareForSim] handled person # 2048
2026-06-18T12:19:54,084  INFO NetworkImpl:419 building QuadTree for nodes: xrange(439459.06825334975,483553.56240213366); yrange(5711221.598506039,5766339.24313264)
2026-06-18T12:19:54,131  INFO NetworkImpl:428 Building QuadTree took 0.056 seconds.
2026-06-18T12:19:54,307  INFO Counter:70 [PersonPrepareForSim] handled person # 4096
2026-06-18T12:19:54,367  INFO Counter:75 [PersonPrepareForSim] handled person # 4523
2026-06-18T12:19:54,375  INFO AbstractController:134 ###################################################
2026-06-18T12:19:54,375  INFO AbstractController:135 ### ITERATION 0 BEGINS
2026-06-18T12:19:54,377  INFO ControlerListenerManagerImpl:146 calling notifyIterationStarts on org.matsim.analysis.LegHistogramListener
2026-06-18T12:19:54,378  INFO ControlerListenerManagerImpl:146 calling notifyIterationStarts on org.matsim.analysis.LinkStatsControlerListener
2026-06-18T12:19:54,378  INFO ControlerListenerManagerImpl:146 calling notifyIterationStarts on org.matsim.core.replanning.ReplanningContextImpl
2026-06-18T12:19:54,378  INFO ControlerListenerManagerImpl:146 calling notifyIterationStarts on org.matsim.core.scoring.ScoringFunctionsForPopulation$$Lambda/0x00000000873bbcc8
2026-06-18T12:19:54,407  INFO ControlerListenerManagerImpl:146 calling notifyIterationStarts on org.matsim.core.scoring.ExperiencedPlansServiceImpl$1
2026-06-18T12:19:54,411  INFO ControlerListenerManagerImpl:149 [it.0] all ControlerIterationStartsListeners called.
2026-06-18T12:19:54,412  INFO ControlerListenerManagerImpl:225 calling notifyBeforeMobsim on org.matsim.core.controler.corelisteners.EventsHandlingImpl
2026-06-18T12:19:54,412  INFO EventsManagerImpl:168 resetting Event-Handlers
2026-06-18T12:19:54,413  INFO EventsManagerImpl:175   org.matsim.core.trafficmonitoring.TravelTimeCalculator
2026-06-18T12:19:54,413  INFO EventsManagerImpl:175   org.matsim.contrib.drt.analysis.DrtVehicleDistanceStats
2026-06-18T12:19:54,414  INFO EventsManagerImpl:175   org.matsim.analysis.VolumesAnalyzer
2026-06-18T12:19:54,414  INFO EventsManagerImpl:175   org.matsim.core.scoring.ScoringFunctionsForPopulation
2026-06-18T12:19:54,414  INFO EventsManagerImpl:175   org.matsim.analysis.LegHistogram
2026-06-18T12:19:54,414  INFO EventsManagerImpl:175   org.matsim.analysis.CalcLegTimes
2026-06-18T12:19:54,415  INFO EventsManagerImpl:175   org.matsim.contrib.drt.optimizer.rebalancing.demandestimator.PreviousIterationDRTDemandEstimator
2026-06-18T12:19:54,415  INFO EventsManagerImpl:175   org.matsim.contrib.drt.analysis.DrtEventSequenceCollector
2026-06-18T12:19:54,416  INFO EventsManagerImpl:175   org.matsim.contrib.drt.analysis.zonal.ZonalIdleVehicleXYVisualiser
2026-06-18T12:19:54,417  INFO EventsManagerImpl:175   org.matsim.contrib.dvrp.analysis.ExecutedScheduleCollector
2026-06-18T12:19:54,418  INFO EventsManagerImpl:175   org.matsim.contrib.dvrp.analysis.VehicleOccupancyProfileCalculator
2026-06-18T12:19:54,420  INFO EventsManagerImpl:175   org.matsim.contrib.dvrp.analysis.VehicleTaskProfileCalculator
2026-06-18T12:19:54,420  INFO EventsManagerImpl:175   org.matsim.contrib.drt.fare.DrtFareHandler
2026-06-18T12:19:54,425  INFO EventsManagerImpl:138 adding Event-Handler: org.matsim.core.events.algorithms.EventWriterXML
2026-06-18T12:19:54,425  INFO EventsManagerImpl:144   org.matsim.core.events.algorithms.EventWriter
2026-06-18T12:19:54,425  INFO EventsManagerImpl:144   org.matsim.core.events.handler.BasicEventHandler
2026-06-18T12:19:54,426  INFO EventsManagerImpl:205     > org.matsim.api.core.v01.events.Event
2026-06-18T12:19:54,426  INFO EventsManagerImpl:154 
2026-06-18T12:19:54,426  INFO EventsManagerImpl:138 adding Event-Handler: org.matsim.core.events.algorithms.EventWriterXML
2026-06-18T12:19:54,426  INFO EventsManagerImpl:144   org.matsim.core.events.algorithms.EventWriter
2026-06-18T12:19:54,427  INFO EventsManagerImpl:144   org.matsim.core.events.handler.BasicEventHandler
2026-06-18T12:19:54,427  INFO EventsManagerImpl:205     > org.matsim.api.core.v01.events.Event
2026-06-18T12:19:54,427  INFO EventsManagerImpl:154 
2026-06-18T12:19:54,428  INFO ControlerListenerManagerImpl:225 calling notifyBeforeMobsim on org.matsim.core.controler.corelisteners.PlansDumpingImpl
2026-06-18T12:19:54,428  INFO PlansDumpingImpl:77 dumping plans...
2026-06-18T12:19:54,527  INFO Counter:70 [PopulationWriter] dumped person # 1
2026-06-18T12:19:54,559  INFO Counter:70 [PopulationWriter] dumped person # 2
2026-06-18T12:19:54,563  INFO Counter:70 [PopulationWriter] dumped person # 4
2026-06-18T12:19:54,570  INFO Counter:70 [PopulationWriter] dumped person # 8
2026-06-18T12:19:54,577  INFO Counter:70 [PopulationWriter] dumped person # 16
2026-06-18T12:19:54,588  INFO Counter:70 [PopulationWriter] dumped person # 32
2026-06-18T12:19:54,606  INFO Counter:70 [PopulationWriter] dumped person # 64
2026-06-18T12:19:54,640  INFO Counter:70 [PopulationWriter] dumped person # 128
2026-06-18T12:19:54,680  INFO Counter:70 [PopulationWriter] dumped person # 256
2026-06-18T12:19:54,741  INFO Counter:70 [PopulationWriter] dumped person # 512
2026-06-18T12:19:54,896  INFO Counter:70 [PopulationWriter] dumped person # 1024
2026-06-18T12:19:55,124  INFO Counter:70 [PopulationWriter] dumped person # 2048
2026-06-18T12:19:55,505  INFO Counter:70 [PopulationWriter] dumped person # 4096
2026-06-18T12:19:55,597  INFO PopulationWriter:145 Population written to: output/S6/ITERS/it.0/0.plans.xml.gz
2026-06-18T12:19:55,629  INFO Counter:75 [PopulationWriter] dumped person # 4523
2026-06-18T12:19:55,632  INFO PlansDumpingImpl:94 finished plans dump.
2026-06-18T12:19:55,634  INFO ControlerListenerManagerImpl:230 calling notifyBeforeMobsim on org.matsim.core.population.VspPlansCleaner
2026-06-18T12:19:55,658  INFO ControlerListenerManagerImpl:233 [it.0] all ControlerBeforeMobsimListeners called.
2026-06-18T12:19:55,661  INFO PrepareForMobsimImpl:87 Network seems to be multimodal. Create car-only network which is handed over to PersonPrepareForSim.
2026-06-18T12:19:55,661  INFO NetworkImpl:165  node # 1
2026-06-18T12:19:55,662  INFO NetworkImpl:165  node # 4
2026-06-18T12:19:55,662  INFO NetworkImpl:165  node # 16
2026-06-18T12:19:55,663  INFO NetworkImpl:165  node # 64
2026-06-18T12:19:55,663  INFO NetworkImpl:165  node # 256
2026-06-18T12:19:55,663  INFO NetworkImpl:165  node # 1024
2026-06-18T12:19:55,667  INFO NetworkImpl:165  node # 4096
2026-06-18T12:19:55,668  INFO NetworkImpl:161  link # 1
2026-06-18T12:19:55,668  INFO NetworkImpl:161  link # 4
2026-06-18T12:19:55,668  INFO NetworkImpl:161  link # 16
2026-06-18T12:19:55,669  INFO NetworkImpl:161  link # 64
2026-06-18T12:19:55,670  INFO NetworkImpl:161  link # 256
2026-06-18T12:19:55,673  INFO NetworkImpl:161  link # 1024
2026-06-18T12:19:55,683  INFO NetworkImpl:161  link # 4096
2026-06-18T12:19:55,699  INFO RandomizingTimeDistanceTravelDisutilityFactory:86  sigma: 3.0; resulting normalization: 0.011108996538242306
2026-06-18T12:19:55,705  INFO RandomizingTimeDistanceTravelDisutilityFactory:86  sigma: 3.0; resulting normalization: 0.011108996538242306
2026-06-18T12:19:55,713  INFO Counter:70 [PersonPrepareForSim] handled person # 1
2026-06-18T12:19:55,714  INFO Counter:70 [PersonPrepareForSim] handled person # 4
2026-06-18T12:19:55,713  INFO Counter:70 [PersonPrepareForSim] handled person # 2
2026-06-18T12:19:55,715  INFO Counter:70 [PersonPrepareForSim] handled person # 8
2026-06-18T12:19:55,716  INFO Counter:70 [PersonPrepareForSim] handled person # 16
2026-06-18T12:19:55,717  INFO Counter:70 [PersonPrepareForSim] handled person # 32
2026-06-18T12:19:55,718  INFO Counter:70 [PersonPrepareForSim] handled person # 64
2026-06-18T12:19:55,719  INFO Counter:70 [PersonPrepareForSim] handled person # 128
2026-06-18T12:19:55,720  INFO Counter:70 [PersonPrepareForSim] handled person # 256
2026-06-18T12:19:55,723  INFO Counter:70 [PersonPrepareForSim] handled person # 512
2026-06-18T12:19:55,728  INFO Counter:70 [PersonPrepareForSim] handled person # 1024
2026-06-18T12:19:55,737  INFO Counter:70 [PersonPrepareForSim] handled person # 2048
2026-06-18T12:19:55,749  INFO Counter:70 [PersonPrepareForSim] handled person # 4096
2026-06-18T12:19:55,754  INFO Counter:75 [PersonPrepareForSim] handled person # 4523
2026-06-18T12:19:55,871  INFO MobsimListenerManager:50 calling addQueueSimulationListener
2026-06-18T12:19:55,902  INFO MobsimListenerManager:54   assigned class org.matsim.core.mobsim.framework.listeners.MobsimListener to interface org.matsim.contrib.dvrp.trafficmonitoring.DvrpOfflineTravelTimeEstimator
2026-06-18T12:19:55,905  INFO MobsimListenerManager:54   assigned class org.matsim.core.mobsim.framework.listeners.MobsimListener to interface org.matsim.core.mobsim.framework.listeners.MobsimBeforeCleanupListener
2026-06-18T12:19:55,905  INFO MobsimListenerManager:54   assigned class org.matsim.core.mobsim.framework.listeners.MobsimListener to interface org.matsim.core.mobsim.framework.listeners.MobsimListener
2026-06-18T12:19:55,905  INFO MobsimListenerManager:50 calling addQueueSimulationListener
2026-06-18T12:19:55,906  INFO MobsimListenerManager:54   assigned class org.matsim.core.mobsim.framework.listeners.MobsimListener to interface org.matsim.vis.snapshotwriters.SnapshotWriterManager
2026-06-18T12:19:55,906  INFO MobsimListenerManager:54   assigned class org.matsim.core.mobsim.framework.listeners.MobsimListener to interface org.matsim.core.mobsim.framework.listeners.MobsimInitializedListener
2026-06-18T12:19:55,908  INFO MobsimListenerManager:54   assigned class org.matsim.core.mobsim.framework.listeners.MobsimListener to interface org.matsim.core.mobsim.framework.listeners.MobsimAfterSimStepListener
2026-06-18T12:19:55,908  INFO MobsimListenerManager:54   assigned class org.matsim.core.mobsim.framework.listeners.MobsimListener to interface org.matsim.core.mobsim.framework.listeners.MobsimBeforeCleanupListener
2026-06-18T12:19:55,908  INFO MobsimListenerManager:54   assigned class org.matsim.core.mobsim.framework.listeners.MobsimListener to interface org.matsim.core.mobsim.framework.listeners.MobsimListener
2026-06-18T12:19:55,925  INFO RandomizingTimeDistanceTravelDisutilityFactory:86  sigma: 3.0; resulting normalization: 0.011108996538242306
2026-06-18T12:19:55,952  INFO SpeedyALTData:51 find dead ends...
2026-06-18T12:19:55,960  INFO SpeedyALTData:132 calculate landmarks...
2026-06-18T12:19:56,013  INFO SpeedyALTData:173 calculate min travelcost...
2026-06-18T12:19:56,136  INFO Counter:70 DVRP free-speed TT matrix: zone 1 / 2498
2026-06-18T12:19:56,156  INFO Counter:70 DVRP free-speed TT matrix: zone 2 / 2498
2026-06-18T12:19:56,184  INFO Counter:70 DVRP free-speed TT matrix: zone 4 / 2498
2026-06-18T12:19:56,206  INFO Counter:70 DVRP free-speed TT matrix: zone 8 / 2498
2026-06-18T12:19:56,240  INFO Counter:70 DVRP free-speed TT matrix: zone 16 / 2498
2026-06-18T12:19:56,314  INFO Counter:70 DVRP free-speed TT matrix: zone 32 / 2498
2026-06-18T12:19:56,418  INFO Counter:70 DVRP free-speed TT matrix: zone 64 / 2498
2026-06-18T12:19:56,509  INFO Counter:70 DVRP free-speed TT matrix: zone 128 / 2498
2026-06-18T12:19:56,659  INFO Counter:70 DVRP free-speed TT matrix: zone 256 / 2498
2026-06-18T12:19:56,930  INFO Counter:70 DVRP free-speed TT matrix: zone 512 / 2498
2026-06-18T12:19:57,478  INFO Counter:70 DVRP free-speed TT matrix: zone 1024 / 2498
2026-06-18T12:19:58,692  INFO Counter:70 DVRP free-speed TT matrix: zone 2048 / 2498
2026-06-18T12:19:59,195  INFO Counter:75 DVRP free-speed TT matrix: zone 2498 / 2498
2026-06-18T12:19:59,242  INFO Counter:70 DVRP free-speed TT sparse matrix: node 1 / 4415
2026-06-18T12:19:59,242  INFO Counter:70 DVRP free-speed TT sparse matrix: node 2 / 4415
2026-06-18T12:19:59,254  INFO Counter:70 DVRP free-speed TT sparse matrix: node 4 / 4415
2026-06-18T12:19:59,258  INFO Counter:70 DVRP free-speed TT sparse matrix: node 8 / 4415
2026-06-18T12:19:59,265  INFO Counter:70 DVRP free-speed TT sparse matrix: node 16 / 4415
2026-06-18T12:19:59,275  INFO Counter:70 DVRP free-speed TT sparse matrix: node 32 / 4415
2026-06-18T12:19:59,290  INFO Counter:70 DVRP free-speed TT sparse matrix: node 64 / 4415
2026-06-18T12:19:59,332  INFO Counter:70 DVRP free-speed TT sparse matrix: node 128 / 4415
2026-06-18T12:19:59,373  INFO Counter:70 DVRP free-speed TT sparse matrix: node 256 / 4415
2026-06-18T12:19:59,389  INFO Counter:70 DVRP free-speed TT sparse matrix: node 512 / 4415
2026-06-18T12:19:59,417  INFO Counter:70 DVRP free-speed TT sparse matrix: node 1024 / 4415
2026-06-18T12:19:59,484  INFO Counter:70 DVRP free-speed TT sparse matrix: node 2048 / 4415
2026-06-18T12:19:59,605  INFO Counter:70 DVRP free-speed TT sparse matrix: node 4096 / 4415
2026-06-18T12:19:59,638  INFO Counter:75 DVRP free-speed TT sparse matrix: node 4415 / 4415
2026-06-18T12:19:59,742  INFO EventsManagerImpl:138 adding Event-Handler: org.matsim.contrib.dvrp.passenger.DefaultPassengerEngine
2026-06-18T12:19:59,760  INFO EventsManagerImpl:144   org.matsim.contrib.dvrp.passenger.PassengerEngine
2026-06-18T12:19:59,761  INFO EventsManagerImpl:144   org.matsim.contrib.dvrp.passenger.PassengerRequestRejectedEventHandler
2026-06-18T12:19:59,763  INFO EventsManagerImpl:205     > org.matsim.contrib.dvrp.passenger.PassengerRequestRejectedEvent
2026-06-18T12:19:59,763  INFO EventsManagerImpl:154 
2026-06-18T12:19:59,763  INFO EventsManagerImpl:138 adding Event-Handler: org.matsim.contrib.dvrp.passenger.DefaultPassengerEngine
2026-06-18T12:19:59,765  INFO EventsManagerImpl:144   org.matsim.contrib.dvrp.passenger.PassengerEngine
2026-06-18T12:19:59,765  INFO EventsManagerImpl:144   org.matsim.contrib.dvrp.passenger.PassengerRequestRejectedEventHandler
2026-06-18T12:19:59,765  INFO EventsManagerImpl:205     > org.matsim.contrib.dvrp.passenger.PassengerRequestRejectedEvent
2026-06-18T12:19:59,766  INFO EventsManagerImpl:154 
2026-06-18T12:19:59,770  INFO QSimProvider:131 Added MobsimEngine class org.matsim.core.mobsim.qsim.ActivityEngineDefaultImpl
2026-06-18T12:19:59,770  INFO QSimProvider:137 Added Activityhandler class org.matsim.core.mobsim.qsim.ActivityEngineDefaultImpl
[...]
2026-06-18T12:20:08,580  INFO AbstractQNetsimEngine:366 SIMULATION (QNetsimEngine) AT 07:00:00 : #links=92 #nodes=17
2026-06-18T12:20:08,610  INFO QSim:566 SIMULATION (NEW QSim) AT 07:00:00 : #Veh=4823 lost=0 simT=25200.0s realT=12s; (s/r): 2100.0
2026-06-18T12:20:13,976  INFO AbstractQNetsimEngine:366 SIMULATION (QNetsimEngine) AT 08:00:00 : #links=106 #nodes=22
2026-06-18T12:20:13,977  INFO QSim:566 SIMULATION (NEW QSim) AT 08:00:00 : #Veh=4823 lost=0 simT=28800.0s realT=18s; (s/r): 1600.0
2026-06-18T12:20:15,377  INFO EventsManagerImpl:115  event # 262144
2026-06-18T12:20:17,628  INFO AbstractQNetsimEngine:366 SIMULATION (QNetsimEngine) AT 09:00:00 : #links=47 #nodes=8
2026-06-18T12:20:17,660  INFO QSim:566 SIMULATION (NEW QSim) AT 09:00:00 : #Veh=4823 lost=0 simT=32400.0s realT=21s; (s/r): 1542.857142857143
2026-06-18T12:20:19,391  INFO AbstractQNetsimEngine:366 SIMULATION (QNetsimEngine) AT 10:00:00 : #links=30 #nodes=2
2026-06-18T12:20:19,392  INFO QSim:566 SIMULATION (NEW QSim) AT 10:00:00 : #Veh=4814 lost=0 simT=36000.0s realT=23s; (s/r): 1565.2173913043478
2026-06-18T12:20:20,888  INFO AbstractQNetsimEngine:366 SIMULATION (QNetsimEngine) AT 11:00:00 : #links=29 #nodes=5
2026-06-18T12:20:20,888  INFO QSim:566 SIMULATION (NEW QSim) AT 11:00:00 : #Veh=4756 lost=0 simT=39600.0s realT=25s; (s/r): 1584.0
2026-06-18T12:20:22,361  INFO AbstractQNetsimEngine:366 SIMULATION (QNetsimEngine) AT 12:00:00 : #links=23 #nodes=1
2026-06-18T12:20:22,373  INFO QSim:566 SIMULATION (NEW QSim) AT 12:00:00 : #Veh=4611 lost=0 simT=43200.0s realT=26s; (s/r): 1661.5384615384614
2026-06-18T12:20:23,577  INFO AbstractQNetsimEngine:366 SIMULATION (QNetsimEngine) AT 13:00:00 : #links=13 #nodes=4
2026-06-18T12:20:23,609  INFO QSim:566 SIMULATION (NEW QSim) AT 13:00:00 : #Veh=4458 lost=0 simT=46800.0s realT=27s; (s/r): 1733.3333333333333
2026-06-18T12:20:24,578  INFO AbstractQNetsimEngine:366 SIMULATION (QNetsimEngine) AT 14:00:00 : #links=18 #nodes=0
2026-06-18T12:20:24,580  INFO QSim:566 SIMULATION (NEW QSim) AT 14:00:00 : #Veh=4233 lost=0 simT=50400.0s realT=28s; (s/r): 1800.0
2026-06-18T12:20:27,171  INFO AbstractQNetsimEngine:366 SIMULATION (QNetsimEngine) AT 15:00:00 : #links=75 #nodes=13
2026-06-18T12:20:27,204  INFO QSim:566 SIMULATION (NEW QSim) AT 15:00:00 : #Veh=3878 lost=0 simT=54000.0s realT=31s; (s/r): 1741.9354838709678
2026-06-18T12:20:31,982  INFO AbstractQNetsimEngine:366 SIMULATION (QNetsimEngine) AT 16:00:00 : #links=105 #nodes=18
2026-06-18T12:20:32,013  INFO QSim:566 SIMULATION (NEW QSim) AT 16:00:00 : #Veh=2894 lost=0 simT=57600.0s realT=36s; (s/r): 1600.0
2026-06-18T12:20:36,323  INFO AbstractQNetsimEngine:366 SIMULATION (QNetsimEngine) AT 17:00:00 : #links=90 #nodes=10
2026-06-18T12:20:36,355  INFO QSim:566 SIMULATION (NEW QSim) AT 17:00:00 : #Veh=1753 lost=0 simT=61200.0s realT=40s; (s/r): 1530.0
2026-06-18T12:20:38,479  INFO AbstractQNetsimEngine:366 SIMULATION (QNetsimEngine) AT 18:00:00 : #links=42 #nodes=6
2026-06-18T12:20:38,480  INFO QSim:566 SIMULATION (NEW QSim) AT 18:00:00 : #Veh=1035 lost=0 simT=64800.0s realT=42s; (s/r): 1542.857142857143
2026-06-18T12:20:39,810  INFO AbstractQNetsimEngine:366 SIMULATION (QNetsimEngine) AT 19:00:00 : #links=16 #nodes=1
2026-06-18T12:20:39,841  INFO QSim:566 SIMULATION (NEW QSim) AT 19:00:00 : #Veh=704 lost=0 simT=68400.0s realT=43s; (s/r): 1590.6976744186047
2026-06-18T12:20:40,664  INFO AbstractQNetsimEngine:366 SIMULATION (QNetsimEngine) AT 20:00:00 : #links=13 #nodes=5
2026-06-18T12:20:40,668  INFO QSim:566 SIMULATION (NEW QSim) AT 20:00:00 : #Veh=497 lost=0 simT=72000.0s realT=44s; (s/r): 1636.3636363636363
2026-06-18T12:20:41,254  INFO AbstractQNetsimEngine:366 SIMULATION (QNetsimEngine) AT 21:00:00 : #links=8 #nodes=4
2026-06-18T12:20:41,257  INFO QSim:566 SIMULATION (NEW QSim) AT 21:00:00 : #Veh=388 lost=0 simT=75600.0s realT=45s; (s/r): 1680.0
2026-06-18T12:20:41,706  INFO AbstractQNetsimEngine:366 SIMULATION (QNetsimEngine) AT 22:00:00 : #links=3 #nodes=0
2026-06-18T12:20:41,738  INFO QSim:566 SIMULATION (NEW QSim) AT 22:00:00 : #Veh=318 lost=0 simT=79200.0s realT=45s; (s/r): 1760.0
2026-06-18T12:20:42,058  INFO AbstractQNetsimEngine:366 SIMULATION (QNetsimEngine) AT 23:00:00 : #links=0 #nodes=0
2026-06-18T12:20:42,090  INFO QSim:566 SIMULATION (NEW QSim) AT 23:00:00 : #Veh=300 lost=0 simT=82800.0s realT=46s; (s/r): 1800.0
2026-06-18T12:20:42,362  INFO AbstractQNetsimEngine:366 SIMULATION (QNetsimEngine) AT 24:00:00 : #links=0 #nodes=0
2026-06-18T12:20:42,405  INFO QSim:566 SIMULATION (NEW QSim) AT 24:00:00 : #Veh=0 lost=0 simT=86400.0s realT=46s; (s/r): 1878.2608695652175
2026-06-18T12:20:42,515  INFO AbstractController$9:235 ### ITERATION 0 fires after mobsim event
2026-06-18T12:20:42,515  INFO Gbl:192 Thread performance: Thread=class org.matsim.core.events.SimStepParallelEventsManagerImpl$ProcessEventsRunnable0  cpu-time=9.71875sec
2026-06-18T12:20:42,548  INFO ControlerListenerManagerImpl:249 calling notifyAfterMobsim on org.matsim.analysis.LegTimesControlerListener
2026-06-18T12:20:42,559  INFO LegTimesControlerListener:51 [0] average trip (probably: leg) duration is: 430 seconds = 00:07:10
2026-06-18T12:20:42,560  INFO ControlerListenerManagerImpl:249 calling notifyAfterMobsim on org.matsim.core.events.MobsimScopeEventHandling
2026-06-18T12:20:42,561  INFO EventsManagerImpl:159 removing Event-Handler: org.matsim.contrib.dvrp.passenger.DefaultPassengerEngine
2026-06-18T12:20:42,561  INFO EventsManagerImpl:159 removing Event-Handler: org.matsim.contrib.dvrp.passenger.DefaultPassengerEngine
2026-06-18T12:20:42,562  INFO ControlerListenerManagerImpl:249 calling notifyAfterMobsim on org.matsim.contrib.dvrp.trafficmonitoring.DvrpOfflineTravelTimeEstimator
2026-06-18T12:20:42,755  INFO ControlerListenerManagerImpl:249 calling notifyAfterMobsim on org.matsim.core.scoring.EventsToActivities$1
2026-06-18T12:20:42,807  INFO ControlerListenerManagerImpl:252 [it.0] all ControlerAfterMobsimListeners called.
2026-06-18T12:20:42,813  INFO AbstractController$4:160 ### ITERATION 0 fires scoring event
2026-06-18T12:20:42,814  INFO ControlerListenerManagerImpl:184 calling notifyScoring on org.matsim.core.scoring.PlansScoringImpl
2026-06-18T12:20:42,831  INFO NewScoreAssignerImpl:58 it: 0 msaStart: null
2026-06-18T12:20:42,841  INFO ControlerListenerManagerImpl:195 [it.0] all ControlerScoringListeners called.
2026-06-18T12:20:42,842  INFO AbstractController$5:168 ### ITERATION 0 fires iteration end event
2026-06-18T12:20:42,843  INFO ControlerListenerManagerImpl:161 calling notifyIterationEnds on org.matsim.core.controler.corelisteners.EventsHandlingImpl
2026-06-18T12:20:42,845  INFO EventsManagerImpl:159 removing Event-Handler: org.matsim.core.events.algorithms.EventWriterXML
2026-06-18T12:20:42,845  INFO EventsManagerImpl:159 removing Event-Handler: org.matsim.core.events.algorithms.EventWriterXML
2026-06-18T12:20:42,845  INFO ControlerListenerManagerImpl:161 calling notifyIterationEnds on org.matsim.core.scoring.PlansScoringImpl
2026-06-18T12:20:42,854  INFO ControlerListenerManagerImpl:168 calling notifyIterationEnds on org.matsim.counts.CountsControlerListener
2026-06-18T12:20:42,855  INFO ControlerListenerManagerImpl:168 calling notifyIterationEnds on org.matsim.analysis.ModeStatsControlerListener
2026-06-18T12:20:42,871  INFO ModeStatsControlerListener:145 Mode shares over all 10014.0 trips found. MainModeIdentifier: class org.matsim.core.router.RoutingModeMainModeIdentifier
2026-06-18T12:20:42,872  INFO ModeStatsControlerListener:152 -- mode share of mode drt = 1.0
2026-06-18T12:20:42,874  INFO ControlerListenerManagerImpl:168 calling notifyIterationEnds on org.matsim.analysis.ScoreStatsControlerListener
2026-06-18T12:20:42,879  INFO ScoreStatsControlerListener:149 -- avg. score of the executed plan of each agent: 89.20313242436009
2026-06-18T12:20:42,879  INFO ScoreStatsControlerListener:150 -- avg. score of the worst plan of each agent: 89.20313242436009
2026-06-18T12:20:42,880  INFO ScoreStatsControlerListener:151 -- avg. of the avg. plan score per agent: 89.20313242436009
2026-06-18T12:20:42,880  INFO ScoreStatsControlerListener:152 -- avg. score of the best plan of each agent: 89.20313242436009
2026-06-18T12:20:42,887  INFO ControlerListenerManagerImpl:168 calling notifyIterationEnds on org.matsim.analysis.IterationTravelStatsControlerListener
2026-06-18T12:20:42,944  INFO TravelDistanceStats:144 -- average leg distance per plan (executed plans only): 2935.2992800264683 meters
2026-06-18T12:20:42,977  INFO TravelDistanceStats:145 average leg distance per Person (executed plans only): 19478.23846798904 meters (statistic on all 30014 legs which have a finite distance)
2026-06-18T12:20:42,977  INFO TravelDistanceStats:146 -- average trip distance per plan (executed plans only): 8797.690492382108 meters
2026-06-18T12:20:42,977  INFO TravelDistanceStats:147 average trip distance per Person (executed plans only): 19478.23846798904 meters (statistic on all 10014 trips which have a finite distance)
2026-06-18T12:20:42,978  INFO TravelDistanceStats:148 (TravelDistanceStats takes an average over all legs where the simulation reports travelled (network) distances
2026-06-18T12:20:42,978  INFO TravelDistanceStats:149 (and teleported legs whose route contains a distance.)
2026-06-18T12:20:45,368  INFO ControlerListenerManagerImpl:168 calling notifyIterationEnds on org.matsim.analysis.LegHistogramListener
2026-06-18T12:20:45,377  INFO LegHistogramListener:73 number of legs:	30014	100%
2026-06-18T12:20:45,379  INFO LegHistogramListener:80 number of drt legs:	10000	33.317785033650964%
2026-06-18T12:20:45,380  INFO LegHistogramListener:80 number of walk legs:	20014	66.68221496634904%
2026-06-18T12:20:45,826  INFO ControlerListenerManagerImpl:168 calling notifyIterationEnds on org.matsim.analysis.LinkStatsControlerListener
2026-06-18T12:20:45,829  INFO ControlerListenerManagerImpl:168 calling notifyIterationEnds on org.matsim.contrib.drt.analysis.DrtAnalysisControlerListener
2026-06-18T12:20:49,348  INFO ControlerListenerManagerImpl:168 calling notifyIterationEnds on org.matsim.contrib.common.timeprofile.ProfileWriter
2026-06-18T12:20:49,804  INFO ControlerListenerManagerImpl:168 calling notifyIterationEnds on org.matsim.contrib.common.timeprofile.ProfileWriter
2026-06-18T12:20:50,185  INFO ControlerListenerManagerImpl:168 calling notifyIterationEnds on org.matsim.contrib.drt.analysis.zonal.DrtZonalWaitTimesAnalyzer
2026-06-18T12:20:50,215  INFO ControlerListenerManagerImpl:168 calling notifyIterationEnds on org.matsim.contrib.drt.analysis.zonal.ZonalIdleVehicleXYVisualiser
2026-06-18T12:20:50,234  INFO ControlerListenerManagerImpl:172 [it.0] all ControlerIterationEndsListeners called.
2026-06-18T12:20:50,426  INFO AbstractController:182 ### ITERATION 0 ENDS
2026-06-18T12:20:50,456  INFO AbstractController:183 ###################################################
2026-06-18T12:20:50,456  INFO MatsimRuntimeModifications:80 S H U T D O W N   ---   start shutdown.
2026-06-18T12:20:50,458  INFO ControlerListenerManagerImpl:122 calling notifyShutdown on org.matsim.core.controler.corelisteners.EventsHandlingImpl
2026-06-18T12:20:50,458  INFO ControlerListenerManagerImpl:122 calling notifyShutdown on org.matsim.core.controler.corelisteners.DumpDataAtEndImpl
2026-06-18T12:20:50,467  INFO Counter:70 [PopulationWriter] dumped person # 1
2026-06-18T12:20:50,467  INFO Counter:70 [PopulationWriter] dumped person # 2
2026-06-18T12:20:50,469  INFO Counter:70 [PopulationWriter] dumped person # 4
2026-06-18T12:20:50,469  INFO Counter:70 [PopulationWriter] dumped person # 8
2026-06-18T12:20:50,472  INFO Counter:70 [PopulationWriter] dumped person # 16
2026-06-18T12:20:50,475  INFO Counter:70 [PopulationWriter] dumped person # 32
2026-06-18T12:20:50,482  INFO Counter:70 [PopulationWriter] dumped person # 64
2026-06-18T12:20:50,493  INFO Counter:70 [PopulationWriter] dumped person # 128
2026-06-18T12:20:50,547  INFO Counter:70 [PopulationWriter] dumped person # 256
2026-06-18T12:20:50,639  INFO Counter:70 [PopulationWriter] dumped person # 512
2026-06-18T12:20:50,725  INFO Counter:70 [PopulationWriter] dumped person # 1024
2026-06-18T12:20:50,896  INFO Counter:70 [PopulationWriter] dumped person # 2048
2026-06-18T12:20:51,221  INFO Counter:70 [PopulationWriter] dumped person # 4096
2026-06-18T12:20:51,296  INFO PopulationWriter:145 Population written to: output/S6/output_plans.xml.gz
2026-06-18T12:20:51,328  INFO Counter:75 [PopulationWriter] dumped person # 4523
2026-06-18T12:20:51,330  INFO NetworkWriter:70 Writing network to file: output/S6/output_network.xml.gz...
2026-06-18T12:20:51,532  INFO NetworkWriter:73 done.
2026-06-18T12:20:51,539  INFO Config:551 setting context to [file:/D:/Study/TUB/So2026/ITS/GroupAssignment/ITS-Homework2/Assignment_2/Task3-Cottbus/]
2026-06-18T12:20:51,543  INFO Config:551 setting context to [file:/D:/Study/TUB/So2026/ITS/GroupAssignment/ITS-Homework2/Assignment_2/Task3-Cottbus/]
2026-06-18T12:20:51,546  INFO Config:551 setting context to [file:/D:/Study/TUB/So2026/ITS/GroupAssignment/ITS-Homework2/Assignment_2/Task3-Cottbus/]
2026-06-18T12:20:51,549  INFO Config:551 setting context to [file:/D:/Study/TUB/So2026/ITS/GroupAssignment/ITS-Homework2/Assignment_2/Task3-Cottbus/]
2026-06-18T12:20:51,553  INFO Config:551 setting context to [file:/D:/Study/TUB/So2026/ITS/GroupAssignment/ITS-Homework2/Assignment_2/Task3-Cottbus/]
2026-06-18T12:20:51,556  INFO Config:551 setting context to [file:/D:/Study/TUB/So2026/ITS/GroupAssignment/ITS-Homework2/Assignment_2/Task3-Cottbus/]
2026-06-18T12:20:51,560  INFO Config:551 setting context to [file:/D:/Study/TUB/So2026/ITS/GroupAssignment/ITS-Homework2/Assignment_2/Task3-Cottbus/]
2026-06-18T12:20:51,573  INFO Config:551 setting context to [file:/D:/Study/TUB/So2026/ITS/GroupAssignment/ITS-Homework2/Assignment_2/Task3-Cottbus/]
2026-06-18T12:20:51,581  INFO Config:551 setting context to [file:/D:/Study/TUB/So2026/ITS/GroupAssignment/ITS-Homework2/Assignment_2/Task3-Cottbus/]
2026-06-18T12:20:51,588  INFO Config:551 setting context to [file:/D:/Study/TUB/So2026/ITS/GroupAssignment/ITS-Homework2/Assignment_2/Task3-Cottbus/]
2026-06-18T12:20:51,593  INFO Config:551 setting context to [file:/D:/Study/TUB/So2026/ITS/GroupAssignment/ITS-Homework2/Assignment_2/Task3-Cottbus/]
2026-06-18T12:20:51,596  INFO Config:551 setting context to [file:/D:/Study/TUB/So2026/ITS/GroupAssignment/ITS-Homework2/Assignment_2/Task3-Cottbus/]
2026-06-18T12:20:51,598  INFO Config:551 setting context to [file:/D:/Study/TUB/So2026/ITS/GroupAssignment/ITS-Homework2/Assignment_2/Task3-Cottbus/]
2026-06-18T12:20:51,605  INFO Config:551 setting context to [file:/D:/Study/TUB/So2026/ITS/GroupAssignment/ITS-Homework2/Assignment_2/Task3-Cottbus/]
2026-06-18T12:20:51,610  INFO Config:551 setting context to [file:/D:/Study/TUB/So2026/ITS/GroupAssignment/ITS-Homework2/Assignment_2/Task3-Cottbus/]
2026-06-18T12:20:51,612  INFO Config:551 setting context to [file:/D:/Study/TUB/So2026/ITS/GroupAssignment/ITS-Homework2/Assignment_2/Task3-Cottbus/]
2026-06-18T12:20:51,615  INFO Config:551 setting context to [file:/D:/Study/TUB/So2026/ITS/GroupAssignment/ITS-Homework2/Assignment_2/Task3-Cottbus/]
2026-06-18T12:20:51,621  INFO Config:551 setting context to [file:/D:/Study/TUB/So2026/ITS/GroupAssignment/ITS-Homework2/Assignment_2/Task3-Cottbus/]
2026-06-18T12:20:51,638  INFO Config:551 setting context to [file:/D:/Study/TUB/So2026/ITS/GroupAssignment/ITS-Homework2/Assignment_2/Task3-Cottbus/]
2026-06-18T12:20:51,642  INFO Config:551 setting context to [file:/D:/Study/TUB/So2026/ITS/GroupAssignment/ITS-Homework2/Assignment_2/Task3-Cottbus/]
2026-06-18T12:20:51,646  INFO Config:551 setting context to [file:/D:/Study/TUB/So2026/ITS/GroupAssignment/ITS-Homework2/Assignment_2/Task3-Cottbus/]
2026-06-18T12:20:51,648  INFO Config:551 setting context to [file:/D:/Study/TUB/So2026/ITS/GroupAssignment/ITS-Homework2/Assignment_2/Task3-Cottbus/]
2026-06-18T12:20:51,652  INFO Config:551 setting context to [file:/D:/Study/TUB/So2026/ITS/GroupAssignment/ITS-Homework2/Assignment_2/Task3-Cottbus/]
2026-06-18T12:20:51,655  INFO Config:551 setting context to [file:/D:/Study/TUB/So2026/ITS/GroupAssignment/ITS-Homework2/Assignment_2/Task3-Cottbus/]
2026-06-18T12:20:51,658  INFO Config:551 setting context to [file:/D:/Study/TUB/So2026/ITS/GroupAssignment/ITS-Homework2/Assignment_2/Task3-Cottbus/]
2026-06-18T12:20:51,661  INFO Config:551 setting context to [file:/D:/Study/TUB/So2026/ITS/GroupAssignment/ITS-Homework2/Assignment_2/Task3-Cottbus/]
2026-06-18T12:20:51,663  INFO Config:551 setting context to [file:/D:/Study/TUB/So2026/ITS/GroupAssignment/ITS-Homework2/Assignment_2/Task3-Cottbus/]
2026-06-18T12:20:51,664  INFO Config:551 setting context to [file:/D:/Study/TUB/So2026/ITS/GroupAssignment/ITS-Homework2/Assignment_2/Task3-Cottbus/]
2026-06-18T12:20:51,667  INFO Config:551 setting context to [file:/D:/Study/TUB/So2026/ITS/GroupAssignment/ITS-Homework2/Assignment_2/Task3-Cottbus/]
2026-06-18T12:20:51,669  INFO Config:551 setting context to [file:/D:/Study/TUB/So2026/ITS/GroupAssignment/ITS-Homework2/Assignment_2/Task3-Cottbus/]
2026-06-18T12:20:51,678  INFO MatsimVehicleWriter:55 about to write vehicles to: output/S6/output_vehicles.xml.gz
2026-06-18T12:20:51,679  INFO VehicleWriterV2:64 about to write vehicles to: output/S6/output_vehicles.xml.gz
2026-06-18T12:20:51,710  INFO MatsimVehicleWriter:55 about to write vehicles to: output/S6/output_allVehicles.xml.gz
2026-06-18T12:20:51,711  INFO VehicleWriterV2:64 about to write vehicles to: output/S6/output_allVehicles.xml.gz
2026-06-18T12:20:51,716  INFO HouseholdsWriterV10:67 about to write  households to: output/S6/output_households.xml.gz
2026-06-18T12:20:51,719  INFO Counter:75 [HouseholdsWriter] wrote household # 0
2026-06-18T12:20:51,748  INFO ControlerListenerManagerImpl:127 calling notifyShutdown on org.matsim.analysis.ScoreStatsControlerListener
2026-06-18T12:20:51,750  INFO ControlerListenerManagerImpl:127 calling notifyShutdown on org.matsim.analysis.IterationTravelStatsControlerListener
2026-06-18T12:20:51,751  INFO IterationTravelStatsControlerListener:115 Writing all Person and Attributes to personscsv
2026-06-18T12:20:51,841  INFO IterationTravelStatsControlerListener:159 ...done
2026-06-18T12:20:51,868  INFO ControlerListenerManagerImpl:127 calling notifyShutdown on org.matsim.analysis.LinkStatsControlerListener
2026-06-18T12:20:52,184  INFO ControlerListenerManagerImpl:127 calling notifyShutdown on org.matsim.contrib.drt.analysis.DrtAnalysisControlerListener
2026-06-18T12:20:52,258  INFO ControlerListenerManagerImpl:127 calling notifyShutdown on org.matsim.contrib.drt.routing.DefaultDrtRouteUpdater
2026-06-18T12:20:52,274  INFO MemoryObserver:42 used RAM: 1066 MB  free: 589 MB  total: 1656 MB
2026-06-18T12:20:52,289  INFO ControlerListenerManagerImpl:127 calling notifyShutdown on org.matsim.contrib.drt.analysis.zonal.DrtZonalWaitTimesAnalyzer
2026-06-18T12:20:52,559  WARN MGC:179 Assuming that coordinates are in longitude first notation, i.e. (longitude, latitude).
2026-06-18T12:20:53,493  WARN DrtZonalWaitTimesAnalyzer:169 Coordinate reference system "Atlantis" is unknown. Please set a crs in config global. Will try to create drt_waitStats_drt_zonal.shp anyway.
2026-06-18T12:20:53,575  INFO ShapeFileWriter:51 Writing shapefile to output/S6/drt_waitStats_drt_zonal.shp
2026-06-18T12:20:54,455  INFO ControlerListenerManagerImpl:127 calling notifyShutdown on org.matsim.contrib.dvrp.fleet.FleetControlerListener
2026-06-18T12:20:54,493  INFO ControlerListenerManagerImpl:130 all ControlerShutdownListeners called.
2026-06-18T12:20:54,493  INFO MatsimRuntimeModifications:103 S H U T D O W N   ---   shutdown completed.
2026-06-18T12:20:54,494  INFO OutputDirectoryLogging:171 closing the logfile, i.e. messages sent to the logger after this message are not written to the logfile.
