2026-06-18T12:17:28,816  INFO IOUtils:213 Resolved D:\Study\TUB\So2026\ITS\GroupAssignment\ITS-Homework2\Assignment_2\Task3-Cottbus\config_S4.xml to D:\Study\TUB\So2026\ITS\GroupAssignment\ITS-Homework2\Assignment_2\Task3-Cottbus\config_S4.xml
2026-06-18T12:17:28,853  INFO Config:551 setting context to [file:/D:/Study/TUB/So2026/ITS/GroupAssignment/ITS-Homework2/Assignment_2/Task3-Cottbus/]
2026-06-18T12:17:28,941  INFO Version:21 HV000001: Hibernate Validator master-SNAPSHOT
2026-06-18T12:17:29,122  INFO MatsimXmlParser:165 starting to parse xml from url file:/D:/Study/TUB/So2026/ITS/GroupAssignment/ITS-Homework2/Assignment_2/Task3-Cottbus/config_S4.xml ...
2026-06-18T12:17:29,191  INFO ConfigReader:103 using config_v2-reader
2026-06-18T12:17:29,198  INFO MatsimXmlParser:281 Trying to load http://www.matsim.org/files/dtd/config_v2.dtd. In some cases (e.g. network interface up but no connection), this may take a bit.
2026-06-18T12:17:29,478  INFO Config:551 setting context to [file:/D:/Study/TUB/So2026/ITS/GroupAssignment/ITS-Homework2/Assignment_2/Task3-Cottbus/config_S4.xml]
2026-06-18T12:17:29,525  INFO ScenarioLoaderImpl:135 loading network from file:/D:/Study/TUB/So2026/ITS/GroupAssignment/ITS-Homework2/Assignment_2/Task3-Cottbus/network.xml.gz
2026-06-18T12:17:29,545  INFO MatsimXmlParser:165 starting to parse xml from url file:/D:/Study/TUB/So2026/ITS/GroupAssignment/ITS-Homework2/Assignment_2/Task3-Cottbus/network.xml.gz ...
2026-06-18T12:17:29,552  INFO MatsimNetworkReader:116 using network_v1-reader.
2026-06-18T12:17:29,553  INFO MatsimXmlParser:281 Trying to load http://www.matsim.org/files/dtd/network_v1.dtd. In some cases (e.g. network interface up but no connection), this may take a bit.
2026-06-18T12:17:29,604  INFO NetworkImpl:165  node # 1
2026-06-18T12:17:29,635  INFO NetworkImpl:165  node # 4
2026-06-18T12:17:29,640  INFO NetworkImpl:165  node # 16
2026-06-18T12:17:29,649  INFO NetworkImpl:165  node # 64
2026-06-18T12:17:29,665  INFO NetworkImpl:165  node # 256
2026-06-18T12:17:29,684  INFO NetworkImpl:165  node # 1024
2026-06-18T12:17:29,728  INFO NetworkImpl:165  node # 4096
2026-06-18T12:17:29,768  INFO NetworkImpl:161  link # 1
2026-06-18T12:17:29,770  INFO NetworkImpl:161  link # 4
2026-06-18T12:17:29,774  INFO NetworkImpl:161  link # 16
2026-06-18T12:17:29,783  INFO NetworkImpl:161  link # 64
2026-06-18T12:17:29,795  INFO NetworkImpl:161  link # 256
2026-06-18T12:17:29,825  INFO NetworkImpl:161  link # 1024
2026-06-18T12:17:29,907  INFO NetworkImpl:161  link # 4096
2026-06-18T12:17:30,094  INFO ScenarioLoaderImpl:172 no facilities file set in config, therefore not loading any facilities.  This is not a problem except if you are using facilities
2026-06-18T12:17:30,126  INFO ScenarioLoaderImpl:188 no facility-attributes file set in config, not loading any facility attributes
2026-06-18T12:17:30,128  INFO ScenarioLoaderImpl:196 loading population from file:/D:/Study/TUB/So2026/ITS/GroupAssignment/ITS-Homework2/Assignment_2/Task3-Cottbus/plans.xml
2026-06-18T12:17:30,133  INFO MatsimXmlParser:165 starting to parse xml from url file:/D:/Study/TUB/So2026/ITS/GroupAssignment/ITS-Homework2/Assignment_2/Task3-Cottbus/plans.xml ...
2026-06-18T12:17:30,291  INFO PopulationReader:124 using population_v6-reader.
2026-06-18T12:17:30,323  INFO MatsimXmlParser:281 Trying to load http://www.matsim.org/files/dtd/population_v6.dtd. In some cases (e.g. network interface up but no connection), this may take a bit.
2026-06-18T12:17:30,477  INFO PopulationImpl:107  person # 1
2026-06-18T12:17:30,510  INFO PopulationImpl:107  person # 4
2026-06-18T12:17:30,517  INFO PopulationImpl:107  person # 16
2026-06-18T12:17:30,533  INFO PopulationImpl:107  person # 64
2026-06-18T12:17:30,566  INFO PopulationImpl:107  person # 256
2026-06-18T12:17:30,617  INFO PopulationImpl:107  person # 1024
2026-06-18T12:17:30,806  INFO PopulationImpl:107  person # 4096
2026-06-18T12:17:30,852  INFO PopulationUtils:1078  person # 4523
2026-06-18T12:17:30,854  INFO ScenarioLoaderImpl:244 no person-attributes file set in config, not loading any person attributes
2026-06-18T12:17:30,855  INFO ScenarioLoaderImpl:258 no households file set in config, not loading households
2026-06-18T12:17:30,855  INFO ScenarioLoaderImpl:276 no household-attributes file set in config, not loading any household attributes
2026-06-18T12:17:30,856  INFO ScenarioLoaderImpl:290 no transit schedule file set in config, not loading any transit schedule
2026-06-18T12:17:30,857  INFO ScenarioLoaderImpl:331 no transit vehicles file set in config, not loading any transit vehicles
2026-06-18T12:17:30,882  INFO VspConfigConsistencyCheckerImpl:61 NOT running vsp config consistency check because vsp defaults checking level is set to IGNORE
2026-06-18T12:17:32,406  INFO DvrpGlobalRoutingNetworkProvider:66 DVRP global routing network unfiltered: #nodes=4477 #links:10729
2026-06-18T12:17:32,450  INFO NetworkImpl:165  node # 1
2026-06-18T12:17:32,453  INFO NetworkImpl:165  node # 4
2026-06-18T12:17:32,454  INFO NetworkImpl:165  node # 16
2026-06-18T12:17:32,455  INFO NetworkImpl:165  node # 64
2026-06-18T12:17:32,456  INFO NetworkImpl:165  node # 256
2026-06-18T12:17:32,459  INFO NetworkImpl:165  node # 1024
2026-06-18T12:17:32,462  INFO NetworkImpl:165  node # 4096
2026-06-18T12:17:32,466  INFO NetworkImpl:161  link # 1
2026-06-18T12:17:32,467  INFO NetworkImpl:161  link # 4
2026-06-18T12:17:32,467  INFO NetworkImpl:161  link # 16
2026-06-18T12:17:32,469  INFO NetworkImpl:161  link # 64
2026-06-18T12:17:32,474  INFO NetworkImpl:161  link # 256
2026-06-18T12:17:32,479  INFO NetworkImpl:161  link # 1024
2026-06-18T12:17:32,494  INFO NetworkImpl:161  link # 4096
2026-06-18T12:17:32,526  INFO DvrpGlobalRoutingNetworkProvider:66 DVRP global routing network filtered: #nodes=4415 #links:10599
2026-06-18T12:17:32,535  INFO SimStepParallelEventsManagerImpl:80 number of threads=1
2026-06-18T12:17:32,544  INFO EventsManagerImpl:138 adding Event-Handler: org.matsim.core.trafficmonitoring.TravelTimeCalculator
2026-06-18T12:17:32,546  INFO EventsManagerImpl:144   org.matsim.api.core.v01.events.handler.LinkEnterEventHandler
2026-06-18T12:17:32,548  INFO EventsManagerImpl:205     > org.matsim.api.core.v01.events.LinkEnterEvent
2026-06-18T12:17:32,550  INFO EventsManagerImpl:144   org.matsim.api.core.v01.events.handler.LinkLeaveEventHandler
2026-06-18T12:17:32,551  INFO EventsManagerImpl:205     > org.matsim.api.core.v01.events.LinkLeaveEvent
2026-06-18T12:17:32,551  INFO EventsManagerImpl:144   org.matsim.api.core.v01.events.handler.VehicleEntersTrafficEventHandler
2026-06-18T12:17:32,552  INFO EventsManagerImpl:205     > org.matsim.api.core.v01.events.VehicleEntersTrafficEvent
2026-06-18T12:17:32,552  INFO EventsManagerImpl:144   org.matsim.api.core.v01.events.handler.VehicleLeavesTrafficEventHandler
2026-06-18T12:17:32,553  INFO EventsManagerImpl:205     > org.matsim.api.core.v01.events.VehicleLeavesTrafficEvent
2026-06-18T12:17:32,553  INFO EventsManagerImpl:144   org.matsim.core.api.experimental.events.handler.VehicleArrivesAtFacilityEventHandler
2026-06-18T12:17:32,554  INFO EventsManagerImpl:205     > org.matsim.core.api.experimental.events.VehicleArrivesAtFacilityEvent
2026-06-18T12:17:32,554  INFO EventsManagerImpl:144   org.matsim.api.core.v01.events.handler.VehicleAbortsEventHandler
2026-06-18T12:17:32,555  INFO EventsManagerImpl:205     > org.matsim.api.core.v01.events.VehicleAbortsEvent
2026-06-18T12:17:32,556  INFO EventsManagerImpl:154 
2026-06-18T12:17:32,556  INFO EventsManagerImpl:138 adding Event-Handler: org.matsim.core.trafficmonitoring.TravelTimeCalculator
2026-06-18T12:17:32,557  INFO EventsManagerImpl:144   org.matsim.api.core.v01.events.handler.LinkEnterEventHandler
2026-06-18T12:17:32,557  INFO EventsManagerImpl:205     > org.matsim.api.core.v01.events.LinkEnterEvent
2026-06-18T12:17:32,558  INFO EventsManagerImpl:144   org.matsim.api.core.v01.events.handler.LinkLeaveEventHandler
2026-06-18T12:17:32,559  INFO EventsManagerImpl:205     > org.matsim.api.core.v01.events.LinkLeaveEvent
2026-06-18T12:17:32,560  INFO EventsManagerImpl:144   org.matsim.api.core.v01.events.handler.VehicleEntersTrafficEventHandler
2026-06-18T12:17:32,561  INFO EventsManagerImpl:205     > org.matsim.api.core.v01.events.VehicleEntersTrafficEvent
2026-06-18T12:17:32,561  INFO EventsManagerImpl:144   org.matsim.api.core.v01.events.handler.VehicleLeavesTrafficEventHandler
2026-06-18T12:17:32,563  INFO EventsManagerImpl:205     > org.matsim.api.core.v01.events.VehicleLeavesTrafficEvent
2026-06-18T12:17:32,564  INFO EventsManagerImpl:144   org.matsim.core.api.experimental.events.handler.VehicleArrivesAtFacilityEventHandler
2026-06-18T12:17:32,565  INFO EventsManagerImpl:205     > org.matsim.core.api.experimental.events.VehicleArrivesAtFacilityEvent
2026-06-18T12:17:32,565  INFO EventsManagerImpl:144   org.matsim.api.core.v01.events.handler.VehicleAbortsEventHandler
2026-06-18T12:17:32,565  INFO EventsManagerImpl:205     > org.matsim.api.core.v01.events.VehicleAbortsEvent
2026-06-18T12:17:32,565  INFO EventsManagerImpl:154 
2026-06-18T12:17:32,600  INFO MatsimXmlParser:165 starting to parse xml from url file:/D:/Study/TUB/So2026/ITS/GroupAssignment/ITS-Homework2/Assignment_2/Task3-Cottbus/drt-vehicles/fleet-size-400.xml ...
2026-06-18T12:17:32,608  INFO MatsimXmlParser:281 Trying to load http://matsim.org/files/dtd/dvrp_vehicles_v1.dtd. In some cases (e.g. network interface up but no connection), this may take a bit.
2026-06-18T12:17:32,821  INFO DrtGridUtils:50 start creating grid from network
2026-06-18T12:17:32,873  INFO DrtGridUtils:72 finished creating grid from network
2026-06-18T12:17:33,105  INFO SpeedyALTData:51 find dead ends...
2026-06-18T12:17:33,117  INFO SpeedyALTData:132 calculate landmarks...
2026-06-18T12:17:33,215  INFO SpeedyALTData:173 calculate min travelcost...
2026-06-18T12:17:33,274  INFO StrategyManager:77 global innovation switch off after iteration: 0
2026-06-18T12:17:33,278  INFO GenericStrategyManagerImpl:330 added change request:  iteration=1 newWeight=0.0 strategy=RandomPlanSelector_TimeAllocationMutatorModule
2026-06-18T12:17:33,279  INFO GenericStrategyManagerImpl:362 setting PlanSelectorForRemoval to class org.matsim.core.replanning.selectors.WorstPlanForRemovalSelector
2026-06-18T12:17:33,284  INFO EventsManagerImpl:138 adding Event-Handler: org.matsim.core.scoring.ScoringFunctionsForPopulation
2026-06-18T12:17:33,285  INFO EventsManagerImpl:144   org.matsim.core.events.handler.BasicEventHandler
2026-06-18T12:17:33,285  INFO EventsManagerImpl:205     > org.matsim.api.core.v01.events.Event
2026-06-18T12:17:33,285  INFO EventsManagerImpl:154 
2026-06-18T12:17:33,286  INFO EventsManagerImpl:138 adding Event-Handler: org.matsim.core.scoring.ScoringFunctionsForPopulation
2026-06-18T12:17:33,286  INFO EventsManagerImpl:144   org.matsim.core.events.handler.BasicEventHandler
2026-06-18T12:17:33,286  INFO EventsManagerImpl:205     > org.matsim.api.core.v01.events.Event
2026-06-18T12:17:33,287  INFO EventsManagerImpl:154 
2026-06-18T12:17:33,294  INFO CalcLinkStats:151  resetting `count' to zero.  This info is here since we want to check when this is happening during normal simulation runs.  kai, jan'11
2026-06-18T12:17:33,310  INFO EventsManagerImpl:138 adding Event-Handler: org.matsim.analysis.VolumesAnalyzer
2026-06-18T12:17:33,311  INFO EventsManagerImpl:144   org.matsim.api.core.v01.events.handler.LinkLeaveEventHandler
2026-06-18T12:17:33,311  INFO EventsManagerImpl:205     > org.matsim.api.core.v01.events.LinkLeaveEvent
2026-06-18T12:17:33,314  INFO EventsManagerImpl:144   org.matsim.api.core.v01.events.handler.VehicleEntersTrafficEventHandler
2026-06-18T12:17:33,314  INFO EventsManagerImpl:205     > org.matsim.api.core.v01.events.VehicleEntersTrafficEvent
2026-06-18T12:17:33,315  INFO EventsManagerImpl:154 
2026-06-18T12:17:33,317  INFO EventsManagerImpl:138 adding Event-Handler: org.matsim.analysis.VolumesAnalyzer
2026-06-18T12:17:33,317  INFO EventsManagerImpl:144   org.matsim.api.core.v01.events.handler.LinkLeaveEventHandler
2026-06-18T12:17:33,318  INFO EventsManagerImpl:205     > org.matsim.api.core.v01.events.LinkLeaveEvent
2026-06-18T12:17:33,318  INFO EventsManagerImpl:144   org.matsim.api.core.v01.events.handler.VehicleEntersTrafficEventHandler
2026-06-18T12:17:33,319  INFO EventsManagerImpl:205     > org.matsim.api.core.v01.events.VehicleEntersTrafficEvent
2026-06-18T12:17:33,320  INFO EventsManagerImpl:154 
2026-06-18T12:17:33,321  INFO EventsManagerImpl:138 adding Event-Handler: org.matsim.analysis.LegHistogram
2026-06-18T12:17:33,323  INFO EventsManagerImpl:144   org.matsim.api.core.v01.events.handler.PersonDepartureEventHandler
2026-06-18T12:17:33,326  INFO EventsManagerImpl:205     > org.matsim.api.core.v01.events.PersonDepartureEvent
2026-06-18T12:17:33,327  INFO EventsManagerImpl:144   org.matsim.api.core.v01.events.handler.PersonArrivalEventHandler
2026-06-18T12:17:33,327  INFO EventsManagerImpl:205     > org.matsim.api.core.v01.events.PersonArrivalEvent
2026-06-18T12:17:33,328  INFO EventsManagerImpl:144   org.matsim.api.core.v01.events.handler.PersonStuckEventHandler
2026-06-18T12:17:33,329  INFO EventsManagerImpl:205     > org.matsim.api.core.v01.events.PersonStuckEvent
2026-06-18T12:17:33,330  INFO EventsManagerImpl:154 
2026-06-18T12:17:33,330  INFO EventsManagerImpl:138 adding Event-Handler: org.matsim.analysis.LegHistogram
2026-06-18T12:17:33,332  INFO EventsManagerImpl:144   org.matsim.api.core.v01.events.handler.PersonDepartureEventHandler
2026-06-18T12:17:33,332  INFO EventsManagerImpl:205     > org.matsim.api.core.v01.events.PersonDepartureEvent
2026-06-18T12:17:33,333  INFO EventsManagerImpl:144   org.matsim.api.core.v01.events.handler.PersonArrivalEventHandler
2026-06-18T12:17:33,333  INFO EventsManagerImpl:205     > org.matsim.api.core.v01.events.PersonArrivalEvent
2026-06-18T12:17:33,334  INFO EventsManagerImpl:144   org.matsim.api.core.v01.events.handler.PersonStuckEventHandler
2026-06-18T12:17:33,335  INFO EventsManagerImpl:205     > org.matsim.api.core.v01.events.PersonStuckEvent
2026-06-18T12:17:33,335  INFO EventsManagerImpl:154 
2026-06-18T12:17:33,336  INFO EventsManagerImpl:138 adding Event-Handler: org.matsim.analysis.CalcLegTimes
2026-06-18T12:17:33,336  INFO EventsManagerImpl:144   org.matsim.api.core.v01.events.handler.PersonDepartureEventHandler
2026-06-18T12:17:33,337  INFO EventsManagerImpl:205     > org.matsim.api.core.v01.events.PersonDepartureEvent
2026-06-18T12:17:33,337  INFO EventsManagerImpl:144   org.matsim.api.core.v01.events.handler.PersonArrivalEventHandler
2026-06-18T12:17:33,338  INFO EventsManagerImpl:205     > org.matsim.api.core.v01.events.PersonArrivalEvent
2026-06-18T12:17:33,339  INFO EventsManagerImpl:144   org.matsim.api.core.v01.events.handler.ActivityEndEventHandler
2026-06-18T12:17:33,339  INFO EventsManagerImpl:205     > org.matsim.api.core.v01.events.ActivityEndEvent
2026-06-18T12:17:33,339  INFO EventsManagerImpl:144   org.matsim.api.core.v01.events.handler.ActivityStartEventHandler
2026-06-18T12:17:33,340  INFO EventsManagerImpl:205     > org.matsim.api.core.v01.events.ActivityStartEvent
2026-06-18T12:17:33,340  INFO EventsManagerImpl:154 
2026-06-18T12:17:33,340  INFO EventsManagerImpl:138 adding Event-Handler: org.matsim.analysis.CalcLegTimes
2026-06-18T12:17:33,340  INFO EventsManagerImpl:144   org.matsim.api.core.v01.events.handler.PersonDepartureEventHandler
2026-06-18T12:17:33,341  INFO EventsManagerImpl:205     > org.matsim.api.core.v01.events.PersonDepartureEvent
2026-06-18T12:17:33,341  INFO EventsManagerImpl:144   org.matsim.api.core.v01.events.handler.PersonArrivalEventHandler
2026-06-18T12:17:33,341  INFO EventsManagerImpl:205     > org.matsim.api.core.v01.events.PersonArrivalEvent
2026-06-18T12:17:33,342  INFO EventsManagerImpl:144   org.matsim.api.core.v01.events.handler.ActivityEndEventHandler
2026-06-18T12:17:33,342  INFO EventsManagerImpl:205     > org.matsim.api.core.v01.events.ActivityEndEvent
2026-06-18T12:17:33,343  INFO EventsManagerImpl:144   org.matsim.api.core.v01.events.handler.ActivityStartEventHandler
2026-06-18T12:17:33,343  INFO EventsManagerImpl:205     > org.matsim.api.core.v01.events.ActivityStartEvent
2026-06-18T12:17:33,345  INFO EventsManagerImpl:154 
2026-06-18T12:17:33,355  INFO AbstractController:55 Used Controler-Class: org.matsim.core.controler.NewControler
2026-06-18T12:17:33,356  INFO Config:511 ConfigConsistencyChecker with runtime type=class org.matsim.core.config.consistency.ConfigConsistencyCheckerImpl was already added; not adding it a second time
2026-06-18T12:17:33,359  INFO EventsManagerImpl:138 adding Event-Handler: org.matsim.contrib.drt.analysis.zonal.ZonalIdleVehicleXYVisualiser
2026-06-18T12:17:33,360  INFO EventsManagerImpl:144   org.matsim.contrib.dvrp.vrpagent.TaskStartedEventHandler
2026-06-18T12:17:33,360  INFO EventsManagerImpl:205     > org.matsim.contrib.dvrp.vrpagent.TaskStartedEvent
2026-06-18T12:17:33,361  INFO EventsManagerImpl:144   org.matsim.contrib.dvrp.vrpagent.TaskEndedEventHandler
2026-06-18T12:17:33,361  INFO EventsManagerImpl:205     > org.matsim.contrib.dvrp.vrpagent.TaskEndedEvent
2026-06-18T12:17:33,362  INFO EventsManagerImpl:154 
2026-06-18T12:17:33,362  INFO EventsManagerImpl:138 adding Event-Handler: org.matsim.contrib.drt.analysis.zonal.ZonalIdleVehicleXYVisualiser
2026-06-18T12:17:33,364  INFO EventsManagerImpl:144   org.matsim.contrib.dvrp.vrpagent.TaskStartedEventHandler
2026-06-18T12:17:33,364  INFO EventsManagerImpl:205     > org.matsim.contrib.dvrp.vrpagent.TaskStartedEvent
2026-06-18T12:17:33,365  INFO EventsManagerImpl:144   org.matsim.contrib.dvrp.vrpagent.TaskEndedEventHandler
2026-06-18T12:17:33,365  INFO EventsManagerImpl:205     > org.matsim.contrib.dvrp.vrpagent.TaskEndedEvent
2026-06-18T12:17:33,366  INFO EventsManagerImpl:154 
2026-06-18T12:17:33,367  INFO EventsManagerImpl:138 adding Event-Handler: org.matsim.contrib.drt.optimizer.rebalancing.demandestimator.PreviousIterationDRTDemandEstimator
2026-06-18T12:17:33,367  INFO EventsManagerImpl:144   org.matsim.api.core.v01.events.handler.PersonDepartureEventHandler
2026-06-18T12:17:33,368  INFO EventsManagerImpl:205     > org.matsim.api.core.v01.events.PersonDepartureEvent
2026-06-18T12:17:33,368  INFO EventsManagerImpl:154 
2026-06-18T12:17:33,369  INFO EventsManagerImpl:138 adding Event-Handler: org.matsim.contrib.drt.optimizer.rebalancing.demandestimator.PreviousIterationDRTDemandEstimator
2026-06-18T12:17:33,370  INFO EventsManagerImpl:144   org.matsim.api.core.v01.events.handler.PersonDepartureEventHandler
2026-06-18T12:17:33,370  INFO EventsManagerImpl:205     > org.matsim.api.core.v01.events.PersonDepartureEvent
2026-06-18T12:17:33,371  INFO EventsManagerImpl:154 
2026-06-18T12:17:33,371  INFO EventsManagerImpl:138 adding Event-Handler: org.matsim.contrib.drt.fare.DrtFareHandler
2026-06-18T12:17:33,372  INFO EventsManagerImpl:144   org.matsim.contrib.drt.passenger.events.DrtRequestSubmittedEventHandler
2026-06-18T12:17:33,372  INFO EventsManagerImpl:205     > org.matsim.contrib.drt.passenger.events.DrtRequestSubmittedEvent
2026-06-18T12:17:33,373  INFO EventsManagerImpl:144   org.matsim.contrib.dvrp.passenger.PassengerDroppedOffEventHandler
2026-06-18T12:17:33,374  INFO EventsManagerImpl:205     > org.matsim.contrib.dvrp.passenger.PassengerDroppedOffEvent
2026-06-18T12:17:33,374  INFO EventsManagerImpl:154 
2026-06-18T12:17:33,375  INFO EventsManagerImpl:138 adding Event-Handler: org.matsim.contrib.drt.fare.DrtFareHandler
2026-06-18T12:17:33,375  INFO EventsManagerImpl:144   org.matsim.contrib.drt.passenger.events.DrtRequestSubmittedEventHandler
2026-06-18T12:17:33,376  INFO EventsManagerImpl:205     > org.matsim.contrib.drt.passenger.events.DrtRequestSubmittedEvent
2026-06-18T12:17:33,379  INFO EventsManagerImpl:144   org.matsim.contrib.dvrp.passenger.PassengerDroppedOffEventHandler
2026-06-18T12:17:33,379  INFO EventsManagerImpl:205     > org.matsim.contrib.dvrp.passenger.PassengerDroppedOffEvent
2026-06-18T12:17:33,380  INFO EventsManagerImpl:154 
2026-06-18T12:17:33,381  INFO EventsManagerImpl:138 adding Event-Handler: org.matsim.contrib.dvrp.analysis.ExecutedScheduleCollector
2026-06-18T12:17:33,383  INFO EventsManagerImpl:144   org.matsim.contrib.dvrp.vrpagent.TaskStartedEventHandler
2026-06-18T12:17:33,383  INFO EventsManagerImpl:205     > org.matsim.contrib.dvrp.vrpagent.TaskStartedEvent
2026-06-18T12:17:33,384  INFO EventsManagerImpl:144   org.matsim.contrib.dvrp.vrpagent.TaskEndedEventHandler
2026-06-18T12:17:33,385  INFO EventsManagerImpl:205     > org.matsim.contrib.dvrp.vrpagent.TaskEndedEvent
2026-06-18T12:17:33,385  INFO EventsManagerImpl:154 
2026-06-18T12:17:33,385  INFO EventsManagerImpl:138 adding Event-Handler: org.matsim.contrib.dvrp.analysis.ExecutedScheduleCollector
2026-06-18T12:17:33,386  INFO EventsManagerImpl:144   org.matsim.contrib.dvrp.vrpagent.TaskStartedEventHandler
2026-06-18T12:17:33,386  INFO EventsManagerImpl:205     > org.matsim.contrib.dvrp.vrpagent.TaskStartedEvent
2026-06-18T12:17:33,387  INFO EventsManagerImpl:144   org.matsim.contrib.dvrp.vrpagent.TaskEndedEventHandler
2026-06-18T12:17:33,387  INFO EventsManagerImpl:205     > org.matsim.contrib.dvrp.vrpagent.TaskEndedEvent
2026-06-18T12:17:33,387  INFO EventsManagerImpl:154 
2026-06-18T12:17:33,388  INFO EventsManagerImpl:138 adding Event-Handler: org.matsim.contrib.drt.analysis.DrtVehicleDistanceStats
2026-06-18T12:17:33,388  INFO EventsManagerImpl:144   org.matsim.contrib.dvrp.passenger.PassengerPickedUpEventHandler
2026-06-18T12:17:33,389  INFO EventsManagerImpl:205     > org.matsim.contrib.dvrp.passenger.PassengerPickedUpEvent
2026-06-18T12:17:33,390  INFO EventsManagerImpl:144   org.matsim.api.core.v01.events.handler.LinkEnterEventHandler
2026-06-18T12:17:33,390  INFO EventsManagerImpl:205     > org.matsim.api.core.v01.events.LinkEnterEvent
2026-06-18T12:17:33,390  INFO EventsManagerImpl:144   org.matsim.contrib.dvrp.passenger.PassengerDroppedOffEventHandler
2026-06-18T12:17:33,391  INFO EventsManagerImpl:205     > org.matsim.contrib.dvrp.passenger.PassengerDroppedOffEvent
2026-06-18T12:17:33,391  INFO EventsManagerImpl:144   org.matsim.core.api.experimental.events.handler.TeleportationArrivalEventHandler
2026-06-18T12:17:33,391  INFO EventsManagerImpl:205     > org.matsim.core.api.experimental.events.TeleportationArrivalEvent
2026-06-18T12:17:33,392  INFO EventsManagerImpl:154 
2026-06-18T12:17:33,392  INFO EventsManagerImpl:138 adding Event-Handler: org.matsim.contrib.drt.analysis.DrtVehicleDistanceStats
2026-06-18T12:17:33,392  INFO EventsManagerImpl:144   org.matsim.contrib.dvrp.passenger.PassengerPickedUpEventHandler
2026-06-18T12:17:33,394  INFO EventsManagerImpl:205     > org.matsim.contrib.dvrp.passenger.PassengerPickedUpEvent
2026-06-18T12:17:33,394  INFO EventsManagerImpl:144   org.matsim.api.core.v01.events.handler.LinkEnterEventHandler
2026-06-18T12:17:33,395  INFO EventsManagerImpl:205     > org.matsim.api.core.v01.events.LinkEnterEvent
2026-06-18T12:17:33,395  INFO EventsManagerImpl:144   org.matsim.contrib.dvrp.passenger.PassengerDroppedOffEventHandler
2026-06-18T12:17:33,396  INFO EventsManagerImpl:205     > org.matsim.contrib.dvrp.passenger.PassengerDroppedOffEvent
2026-06-18T12:17:33,397  INFO EventsManagerImpl:144   org.matsim.core.api.experimental.events.handler.TeleportationArrivalEventHandler
2026-06-18T12:17:33,399  INFO EventsManagerImpl:205     > org.matsim.core.api.experimental.events.TeleportationArrivalEvent
2026-06-18T12:17:33,400  INFO EventsManagerImpl:154 
2026-06-18T12:17:33,400  INFO EventsManagerImpl:138 adding Event-Handler: org.matsim.contrib.drt.analysis.DrtEventSequenceCollector
2026-06-18T12:17:33,400  INFO EventsManagerImpl:144   org.matsim.contrib.dvrp.passenger.PassengerRequestRejectedEventHandler
2026-06-18T12:17:33,401  INFO EventsManagerImpl:205     > org.matsim.contrib.dvrp.passenger.PassengerRequestRejectedEvent
2026-06-18T12:17:33,402  INFO EventsManagerImpl:144   org.matsim.contrib.dvrp.passenger.PassengerRequestScheduledEventHandler
2026-06-18T12:17:33,405  INFO EventsManagerImpl:205     > org.matsim.contrib.dvrp.passenger.PassengerRequestScheduledEvent
2026-06-18T12:17:33,405  INFO EventsManagerImpl:144   org.matsim.contrib.drt.passenger.events.DrtRequestSubmittedEventHandler
2026-06-18T12:17:33,406  INFO EventsManagerImpl:205     > org.matsim.contrib.drt.passenger.events.DrtRequestSubmittedEvent
2026-06-18T12:17:33,406  INFO EventsManagerImpl:144   org.matsim.contrib.dvrp.passenger.PassengerPickedUpEventHandler
2026-06-18T12:17:33,407  INFO EventsManagerImpl:205     > org.matsim.contrib.dvrp.passenger.PassengerPickedUpEvent
2026-06-18T12:17:33,407  INFO EventsManagerImpl:144   org.matsim.contrib.dvrp.passenger.PassengerDroppedOffEventHandler
2026-06-18T12:17:33,408  INFO EventsManagerImpl:205     > org.matsim.contrib.dvrp.passenger.PassengerDroppedOffEvent
2026-06-18T12:17:33,408  INFO EventsManagerImpl:144   org.matsim.api.core.v01.events.handler.PersonMoneyEventHandler
2026-06-18T12:17:33,408  INFO EventsManagerImpl:205     > org.matsim.api.core.v01.events.PersonMoneyEvent
2026-06-18T12:17:33,408  INFO EventsManagerImpl:144   org.matsim.api.core.v01.events.handler.PersonDepartureEventHandler
2026-06-18T12:17:33,409  INFO EventsManagerImpl:205     > org.matsim.api.core.v01.events.PersonDepartureEvent
2026-06-18T12:17:33,409  INFO EventsManagerImpl:154 
2026-06-18T12:17:33,409  INFO EventsManagerImpl:138 adding Event-Handler: org.matsim.contrib.drt.analysis.DrtEventSequenceCollector
2026-06-18T12:17:33,410  INFO EventsManagerImpl:144   org.matsim.contrib.dvrp.passenger.PassengerRequestRejectedEventHandler
2026-06-18T12:17:33,410  INFO EventsManagerImpl:205     > org.matsim.contrib.dvrp.passenger.PassengerRequestRejectedEvent
2026-06-18T12:17:33,411  INFO EventsManagerImpl:144   org.matsim.contrib.dvrp.passenger.PassengerRequestScheduledEventHandler
2026-06-18T12:17:33,411  INFO EventsManagerImpl:205     > org.matsim.contrib.dvrp.passenger.PassengerRequestScheduledEvent
2026-06-18T12:17:33,411  INFO EventsManagerImpl:144   org.matsim.contrib.drt.passenger.events.DrtRequestSubmittedEventHandler
2026-06-18T12:17:33,412  INFO EventsManagerImpl:205     > org.matsim.contrib.drt.passenger.events.DrtRequestSubmittedEvent
2026-06-18T12:17:33,412  INFO EventsManagerImpl:144   org.matsim.contrib.dvrp.passenger.PassengerPickedUpEventHandler
2026-06-18T12:17:33,413  INFO EventsManagerImpl:205     > org.matsim.contrib.dvrp.passenger.PassengerPickedUpEvent
2026-06-18T12:17:33,414  INFO EventsManagerImpl:144   org.matsim.contrib.dvrp.passenger.PassengerDroppedOffEventHandler
2026-06-18T12:17:33,415  INFO EventsManagerImpl:205     > org.matsim.contrib.dvrp.passenger.PassengerDroppedOffEvent
2026-06-18T12:17:33,417  INFO EventsManagerImpl:144   org.matsim.api.core.v01.events.handler.PersonMoneyEventHandler
2026-06-18T12:17:33,417  INFO EventsManagerImpl:205     > org.matsim.api.core.v01.events.PersonMoneyEvent
2026-06-18T12:17:33,418  INFO EventsManagerImpl:144   org.matsim.api.core.v01.events.handler.PersonDepartureEventHandler
2026-06-18T12:17:33,419  INFO EventsManagerImpl:205     > org.matsim.api.core.v01.events.PersonDepartureEvent
2026-06-18T12:17:33,419  INFO EventsManagerImpl:154 
2026-06-18T12:17:33,419  INFO EventsManagerImpl:138 adding Event-Handler: org.matsim.contrib.dvrp.analysis.VehicleOccupancyProfileCalculator
2026-06-18T12:17:33,419  INFO EventsManagerImpl:144   org.matsim.api.core.v01.events.handler.PersonEntersVehicleEventHandler
2026-06-18T12:17:33,420  INFO EventsManagerImpl:205     > org.matsim.api.core.v01.events.PersonEntersVehicleEvent
2026-06-18T12:17:33,421  INFO EventsManagerImpl:144   org.matsim.api.core.v01.events.handler.PersonLeavesVehicleEventHandler
2026-06-18T12:17:33,421  INFO EventsManagerImpl:205     > org.matsim.api.core.v01.events.PersonLeavesVehicleEvent
2026-06-18T12:17:33,422  INFO EventsManagerImpl:144   org.matsim.contrib.dvrp.vrpagent.TaskStartedEventHandler
2026-06-18T12:17:33,422  INFO EventsManagerImpl:205     > org.matsim.contrib.dvrp.vrpagent.TaskStartedEvent
2026-06-18T12:17:33,422  INFO EventsManagerImpl:144   org.matsim.contrib.dvrp.vrpagent.TaskEndedEventHandler
2026-06-18T12:17:33,422  INFO EventsManagerImpl:205     > org.matsim.contrib.dvrp.vrpagent.TaskEndedEvent
2026-06-18T12:17:33,423  INFO EventsManagerImpl:154 
2026-06-18T12:17:33,423  INFO EventsManagerImpl:138 adding Event-Handler: org.matsim.contrib.dvrp.analysis.VehicleOccupancyProfileCalculator
2026-06-18T12:17:33,423  INFO EventsManagerImpl:144   org.matsim.api.core.v01.events.handler.PersonEntersVehicleEventHandler
2026-06-18T12:17:33,423  INFO EventsManagerImpl:205     > org.matsim.api.core.v01.events.PersonEntersVehicleEvent
2026-06-18T12:17:33,424  INFO EventsManagerImpl:144   org.matsim.api.core.v01.events.handler.PersonLeavesVehicleEventHandler
2026-06-18T12:17:33,424  INFO EventsManagerImpl:205     > org.matsim.api.core.v01.events.PersonLeavesVehicleEvent
2026-06-18T12:17:33,424  INFO EventsManagerImpl:144   org.matsim.contrib.dvrp.vrpagent.TaskStartedEventHandler
2026-06-18T12:17:33,425  INFO EventsManagerImpl:205     > org.matsim.contrib.dvrp.vrpagent.TaskStartedEvent
2026-06-18T12:17:33,425  INFO EventsManagerImpl:144   org.matsim.contrib.dvrp.vrpagent.TaskEndedEventHandler
2026-06-18T12:17:33,427  INFO EventsManagerImpl:205     > org.matsim.contrib.dvrp.vrpagent.TaskEndedEvent
2026-06-18T12:17:33,427  INFO EventsManagerImpl:154 
2026-06-18T12:17:33,428  INFO EventsManagerImpl:138 adding Event-Handler: org.matsim.contrib.dvrp.analysis.VehicleTaskProfileCalculator
2026-06-18T12:17:33,428  INFO EventsManagerImpl:144   org.matsim.contrib.dvrp.vrpagent.TaskStartedEventHandler
2026-06-18T12:17:33,429  INFO EventsManagerImpl:205     > org.matsim.contrib.dvrp.vrpagent.TaskStartedEvent
2026-06-18T12:17:33,429  INFO EventsManagerImpl:144   org.matsim.contrib.dvrp.vrpagent.TaskEndedEventHandler
2026-06-18T12:17:33,430  INFO EventsManagerImpl:205     > org.matsim.contrib.dvrp.vrpagent.TaskEndedEvent
2026-06-18T12:17:33,431  INFO EventsManagerImpl:154 
2026-06-18T12:17:33,431  INFO EventsManagerImpl:138 adding Event-Handler: org.matsim.contrib.dvrp.analysis.VehicleTaskProfileCalculator
2026-06-18T12:17:33,431  INFO EventsManagerImpl:144   org.matsim.contrib.dvrp.vrpagent.TaskStartedEventHandler
2026-06-18T12:17:33,432  INFO EventsManagerImpl:205     > org.matsim.contrib.dvrp.vrpagent.TaskStartedEvent
2026-06-18T12:17:33,432  INFO EventsManagerImpl:144   org.matsim.contrib.dvrp.vrpagent.TaskEndedEventHandler
2026-06-18T12:17:33,432  INFO EventsManagerImpl:205     > org.matsim.contrib.dvrp.vrpagent.TaskEndedEvent
2026-06-18T12:17:33,432  INFO EventsManagerImpl:154 
2026-06-18T12:17:33,433  INFO Injector:81 === printInjector start ===
2026-06-18T12:17:33,434  INFO Injector:85 org.matsim.core.mobsim.qsim.components.QSimComponentsConfig 
2026-06-18T12:17:33,436  INFO Injector:86   --> provider: ConstantFactory{value=org.matsim.core.mobsim.qsim.components.QSimComponentsConfig@6d0be7ab}[Scopes.SINGLETON]
2026-06-18T12:17:33,436  INFO Injector:87   --> source: org.matsim.core.controler.Controler$10.install(Controler.java:518)
2026-06-18T12:17:33,437  INFO Injector:89   --> scope: eager singleton
2026-06-18T12:17:33,437  INFO Injector:94   ==full==> InstanceBinding{key=Key[type=org.matsim.core.mobsim.qsim.components.QSimComponentsConfig, annotation=[none]], source=org.matsim.core.controler.Controler$10.install(Controler.java:518), instance=org.matsim.core.mobsim.qsim.components.QSimComponentsConfig@6d0be7ab}
2026-06-18T12:17:33,438  INFO Injector:96 
2026-06-18T12:17:33,438  INFO Injector:85 org.matsim.vis.otfvis.OnTheFlyServer$NonPlanAgentQueryHelper 
2026-06-18T12:17:33,439  INFO Injector:86   --> provider: FactoryProxy{key=Key[type=org.matsim.vis.otfvis.OnTheFlyServer$NonPlanAgentQueryHelper, annotation=[none]], provider=com.google.inject.internal.ConstructorBindingImpl$Factory@1d4fb213}
2026-06-18T12:17:33,439  INFO Injector:87   --> source: org.matsim.contrib.dvrp.run.DvrpModule.install(DvrpModule.java:68)
2026-06-18T12:17:33,439  INFO Injector:89   --> scope: Scopes.NO_SCOPE
2026-06-18T12:17:33,439  INFO Injector:92   --> target: Key[type=org.matsim.contrib.dvrp.vrpagent.VrpAgentQueryHelper, annotation=[none]]
2026-06-18T12:17:33,440  INFO Injector:94   ==full==> LinkedKeyBinding{key=Key[type=org.matsim.vis.otfvis.OnTheFlyServer$NonPlanAgentQueryHelper, annotation=[none]], source=org.matsim.contrib.dvrp.run.DvrpModule.install(DvrpModule.java:68), scope=Scopes.NO_SCOPE, target=Key[type=org.matsim.contrib.dvrp.vrpagent.VrpAgentQueryHelper, annotation=[none]]}
2026-06-18T12:17:33,440  INFO Injector:96 
2026-06-18T12:17:33,440  INFO Injector:85 org.matsim.core.router.util.TravelTime @com.google.inject.name.Named("dvrp_initial")
2026-06-18T12:17:33,441  INFO Injector:86   --> provider: FactoryProxy{key=Key[type=org.matsim.core.router.util.TravelTime, annotation=@com.google.inject.name.Named("dvrp_initial")], provider=com.google.inject.internal.ConstructorBindingImpl$Factory@6ef60295}[Scopes.SINGLETON]
2026-06-18T12:17:33,441  INFO Injector:87   --> source: org.matsim.contrib.dvrp.trafficmonitoring.DvrpTravelTimeModule.install(DvrpTravelTimeModule.java:55)
2026-06-18T12:17:33,441  INFO Injector:89   --> scope: eager singleton
2026-06-18T12:17:33,442  INFO Injector:92   --> target: Key[type=org.matsim.contrib.dvrp.trafficmonitoring.QSimFreeSpeedTravelTime, annotation=[none]]
2026-06-18T12:17:33,442  INFO Injector:94   ==full==> LinkedKeyBinding{key=Key[type=org.matsim.core.router.util.TravelTime, annotation=@com.google.inject.name.Named("dvrp_initial")], source=org.matsim.contrib.dvrp.trafficmonitoring.DvrpTravelTimeModule.install(DvrpTravelTimeModule.java:55), scope=eager singleton, target=Key[type=org.matsim.contrib.dvrp.trafficmonitoring.QSimFreeSpeedTravelTime, annotation=[none]]}
2026-06-18T12:17:33,443  INFO Injector:96 
2026-06-18T12:17:33,443  INFO Injector:85 org.matsim.core.router.util.TravelTime @com.google.inject.name.Named("dvrp_observed")
2026-06-18T12:17:33,443  INFO Injector:86   --> provider: FactoryProxy{key=Key[type=org.matsim.core.router.util.TravelTime, annotation=@com.google.inject.name.Named("dvrp_observed")], provider=org.matsim.core.trafficmonitoring.TravelTimeCalculatorModule$1@2938127d[Scopes.SINGLETON]}
2026-06-18T12:17:33,444  INFO Injector:87   --> source: org.matsim.contrib.dvrp.trafficmonitoring.DvrpTravelTimeModule.install(DvrpTravelTimeModule.java:58)
2026-06-18T12:17:33,444  INFO Injector:89   --> scope: Scopes.NO_SCOPE
2026-06-18T12:17:33,444  INFO Injector:92   --> target: Key[type=org.matsim.core.router.util.TravelTime, annotation=@com.google.inject.name.Named("car")]
2026-06-18T12:17:33,444  INFO Injector:94   ==full==> LinkedKeyBinding{key=Key[type=org.matsim.core.router.util.TravelTime, annotation=@com.google.inject.name.Named("dvrp_observed")], source=org.matsim.contrib.dvrp.trafficmonitoring.DvrpTravelTimeModule.install(DvrpTravelTimeModule.java:58), scope=Scopes.NO_SCOPE, target=Key[type=org.matsim.core.router.util.TravelTime, annotation=@com.google.inject.name.Named("car")]}
2026-06-18T12:17:33,445  INFO Injector:96 
2026-06-18T12:17:33,445  INFO Injector:85 org.matsim.core.router.util.TravelTime @com.google.inject.name.Named("dvrp_estimated")
2026-06-18T12:17:33,445  INFO Injector:86   --> provider: FactoryProxy{key=Key[type=org.matsim.core.router.util.TravelTime, annotation=@com.google.inject.name.Named("dvrp_estimated")], provider=FactoryProxy{key=Key[type=org.matsim.contrib.dvrp.trafficmonitoring.DvrpTravelTimeEstimator, annotation=[none]], provider=com.google.inject.internal.ConstructorBindingImpl$Factory@3127cb44[Scopes.SINGLETON]}}
2026-06-18T12:17:33,447  INFO Injector:87   --> source: org.matsim.contrib.dvrp.trafficmonitoring.DvrpTravelTimeModule.install(DvrpTravelTimeModule.java:60)
2026-06-18T12:17:33,448  INFO Injector:89   --> scope: Scopes.NO_SCOPE
2026-06-18T12:17:33,448  INFO Injector:92   --> target: Key[type=org.matsim.contrib.dvrp.trafficmonitoring.DvrpTravelTimeEstimator, annotation=[none]]
2026-06-18T12:17:33,449  INFO Injector:94   ==full==> LinkedKeyBinding{key=Key[type=org.matsim.core.router.util.TravelTime, annotation=@com.google.inject.name.Named("dvrp_estimated")], source=org.matsim.contrib.dvrp.trafficmonitoring.DvrpTravelTimeModule.install(DvrpTravelTimeModule.java:60), scope=Scopes.NO_SCOPE, target=Key[type=org.matsim.contrib.dvrp.trafficmonitoring.DvrpTravelTimeEstimator, annotation=[none]]}
2026-06-18T12:17:33,450  INFO Injector:96 
2026-06-18T12:17:33,450  INFO Injector:85 org.matsim.core.mobsim.framework.listeners.MobsimListener @com.google.inject.internal.Element(setName=,uniqueId=186, type=MULTIBINDER, keyType=)
2026-06-18T12:17:33,450  INFO Injector:86   --> provider: FactoryProxy{key=Key[type=org.matsim.core.mobsim.framework.listeners.MobsimListener, annotation=@com.google.inject.internal.Element(setName=,uniqueId=186, type=MULTIBINDER, keyType=)], provider=com.google.inject.internal.ConstructorBindingImpl$Factory@3127cb44[Scopes.SINGLETON]}
2026-06-18T12:17:33,451  INFO Injector:87   --> source: org.matsim.contrib.dvrp.trafficmonitoring.DvrpTravelTimeModule.install(DvrpTravelTimeModule.java:63)
2026-06-18T12:17:33,452  INFO Injector:89   --> scope: Scopes.NO_SCOPE
2026-06-18T12:17:33,452  INFO Injector:92   --> target: Key[type=org.matsim.contrib.dvrp.trafficmonitoring.DvrpOfflineTravelTimeEstimator, annotation=[none]]
2026-06-18T12:17:33,453  INFO Injector:94   ==full==> LinkedKeyBinding{key=Key[type=org.matsim.core.mobsim.framework.listeners.MobsimListener, annotation=@com.google.inject.internal.Element(setName=,uniqueId=186, type=MULTIBINDER, keyType=)], source=org.matsim.contrib.dvrp.trafficmonitoring.DvrpTravelTimeModule.install(DvrpTravelTimeModule.java:63), scope=Scopes.NO_SCOPE, target=Key[type=org.matsim.contrib.dvrp.trafficmonitoring.DvrpOfflineTravelTimeEstimator, annotation=[none]]}
2026-06-18T12:17:33,453  INFO Injector:96 
2026-06-18T12:17:33,453  INFO Injector:85 org.matsim.core.controler.listener.ControlerListener @com.google.inject.internal.Element(setName=,uniqueId=187, type=MULTIBINDER, keyType=)
2026-06-18T12:17:33,454  INFO Injector:86   --> provider: FactoryProxy{key=Key[type=org.matsim.core.controler.listener.ControlerListener, annotation=@com.google.inject.internal.Element(setName=,uniqueId=187, type=MULTIBINDER, keyType=)], provider=com.google.inject.internal.ConstructorBindingImpl$Factory@3127cb44[Scopes.SINGLETON]}
2026-06-18T12:17:33,454  INFO Injector:87   --> source: org.matsim.contrib.dvrp.trafficmonitoring.DvrpTravelTimeModule.install(DvrpTravelTimeModule.java:64)
2026-06-18T12:17:33,454  INFO Injector:89   --> scope: Scopes.NO_SCOPE
2026-06-18T12:17:33,455  INFO Injector:92   --> target: Key[type=org.matsim.contrib.dvrp.trafficmonitoring.DvrpOfflineTravelTimeEstimator, annotation=[none]]
2026-06-18T12:17:33,455  INFO Injector:94   ==full==> LinkedKeyBinding{key=Key[type=org.matsim.core.controler.listener.ControlerListener, annotation=@com.google.inject.internal.Element(setName=,uniqueId=187, type=MULTIBINDER, keyType=)], source=org.matsim.contrib.dvrp.trafficmonitoring.DvrpTravelTimeModule.install(DvrpTravelTimeModule.java:64), scope=Scopes.NO_SCOPE, target=Key[type=org.matsim.contrib.dvrp.trafficmonitoring.DvrpOfflineTravelTimeEstimator, annotation=[none]]}
2026-06-18T12:17:33,456  INFO Injector:96 
2026-06-18T12:17:33,456  INFO Injector:85 org.matsim.contrib.dvrp.trafficmonitoring.DvrpTravelTimeEstimator 
2026-06-18T12:17:33,457  INFO Injector:86   --> provider: FactoryProxy{key=Key[type=org.matsim.contrib.dvrp.trafficmonitoring.DvrpTravelTimeEstimator, annotation=[none]], provider=com.google.inject.internal.ConstructorBindingImpl$Factory@3127cb44[Scopes.SINGLETON]}
2026-06-18T12:17:33,457  INFO Injector:87   --> source: org.matsim.contrib.dvrp.trafficmonitoring.DvrpTravelTimeModule.install(DvrpTravelTimeModule.java:76)
2026-06-18T12:17:33,457  INFO Injector:89   --> scope: Scopes.NO_SCOPE
2026-06-18T12:17:33,457  INFO Injector:92   --> target: Key[type=org.matsim.contrib.dvrp.trafficmonitoring.DvrpOfflineTravelTimeEstimator, annotation=[none]]
2026-06-18T12:17:33,458  INFO Injector:94   ==full==> LinkedKeyBinding{key=Key[type=org.matsim.contrib.dvrp.trafficmonitoring.DvrpTravelTimeEstimator, annotation=[none]], source=org.matsim.contrib.dvrp.trafficmonitoring.DvrpTravelTimeModule.install(DvrpTravelTimeModule.java:76), scope=Scopes.NO_SCOPE, target=Key[type=org.matsim.contrib.dvrp.trafficmonitoring.DvrpOfflineTravelTimeEstimator, annotation=[none]]}
2026-06-18T12:17:33,458  INFO Injector:96 
2026-06-18T12:17:33,458  INFO Injector:85 org.matsim.contrib.zone.skims.TravelTimeMatrix 
2026-06-18T12:17:33,458  INFO Injector:86   --> provider: org.matsim.contrib.dvrp.run.DvrpModule$1@50fb33a[Scopes.SINGLETON]
2026-06-18T12:17:33,459  INFO Injector:87   --> source: org.matsim.contrib.dvrp.run.DvrpModule.install(DvrpModule.java:75)
2026-06-18T12:17:33,459  INFO Injector:89   --> scope: Scopes.SINGLETON
2026-06-18T12:17:33,460  INFO Injector:94   ==full==> ProviderInstanceBinding{key=Key[type=org.matsim.contrib.zone.skims.TravelTimeMatrix, annotation=[none]], source=org.matsim.contrib.dvrp.run.DvrpModule.install(DvrpModule.java:75), scope=Scopes.SINGLETON, provider=org.matsim.contrib.dvrp.run.DvrpModule$1@50fb33a}
2026-06-18T12:17:33,460  INFO Injector:96 
2026-06-18T12:17:33,460  INFO Injector:85 org.matsim.api.core.v01.network.Network @com.google.inject.name.Named("dvrp_routing")
2026-06-18T12:17:33,461  INFO Injector:86   --> provider: Key[type=org.matsim.contrib.dvrp.router.DvrpGlobalRoutingNetworkProvider, annotation=[none]][Scopes.SINGLETON]
2026-06-18T12:17:33,461  INFO Injector:87   --> source: org.matsim.contrib.dvrp.run.DvrpModule.install(DvrpModule.java:92)
2026-06-18T12:17:33,461  INFO Injector:89   --> scope: eager singleton
2026-06-18T12:17:33,461  INFO Injector:94   ==full==> ProviderKeyBinding{key=Key[type=org.matsim.api.core.v01.network.Network, annotation=@com.google.inject.name.Named("dvrp_routing")], source=org.matsim.contrib.dvrp.run.DvrpModule.install(DvrpModule.java:92), scope=eager singleton, provider=Key[type=org.matsim.contrib.dvrp.router.DvrpGlobalRoutingNetworkProvider, annotation=[none]]}
2026-06-18T12:17:33,461  INFO Injector:96 
2026-06-18T12:17:33,462  INFO Injector:85 org.matsim.core.mobsim.qsim.AbstractQSimModule @com.google.inject.internal.Element(setName=,uniqueId=188, type=MULTIBINDER, keyType=)
2026-06-18T12:17:33,462  INFO Injector:86   --> provider: ConstantFactory{value=org.matsim.contrib.dvrp.run.DvrpModule$2@6732726}[Scopes.SINGLETON]
2026-06-18T12:17:33,462  INFO Injector:87   --> source: org.matsim.contrib.dvrp.run.DvrpModule.install(DvrpModule.java:96)
2026-06-18T12:17:33,462  INFO Injector:89   --> scope: eager singleton
2026-06-18T12:17:33,463  INFO Injector:94   ==full==> InstanceBinding{key=Key[type=org.matsim.core.mobsim.qsim.AbstractQSimModule, annotation=@com.google.inject.internal.Element(setName=,uniqueId=188, type=MULTIBINDER, keyType=)], source=org.matsim.contrib.dvrp.run.DvrpModule.install(DvrpModule.java:96), instance=org.matsim.contrib.dvrp.run.DvrpModule$2@6732726}
2026-06-18T12:17:33,464  INFO Injector:96 
2026-06-18T12:17:33,465  INFO Injector:85 org.matsim.core.mobsim.qsim.AbstractQSimModule @com.google.inject.internal.Element(setName=,uniqueId=189, type=MULTIBINDER, keyType=)
2026-06-18T12:17:33,465  INFO Injector:86   --> provider: ConstantFactory{value=org.matsim.core.mobsim.qsim.PreplanningEngineQSimModule@474821de}[Scopes.SINGLETON]
2026-06-18T12:17:33,466  INFO Injector:87   --> source: org.matsim.contrib.dvrp.passenger.PassengerModule.install(PassengerModule.java:39)
2026-06-18T12:17:33,466  INFO Injector:89   --> scope: eager singleton
2026-06-18T12:17:33,466  INFO Injector:94   ==full==> InstanceBinding{key=Key[type=org.matsim.core.mobsim.qsim.AbstractQSimModule, annotation=@com.google.inject.internal.Element(setName=,uniqueId=189, type=MULTIBINDER, keyType=)], source=org.matsim.contrib.dvrp.passenger.PassengerModule.install(PassengerModule.java:39), instance=org.matsim.core.mobsim.qsim.PreplanningEngineQSimModule@474821de}
2026-06-18T12:17:33,468  INFO Injector:96 
2026-06-18T12:17:33,468  INFO Injector:85 org.matsim.contrib.dvrp.run.DvrpMode @com.google.inject.internal.Element(setName=,uniqueId=165, type=MULTIBINDER, keyType=)
2026-06-18T12:17:33,469  INFO Injector:86   --> provider: ConstantFactory{value=@org.matsim.contrib.dvrp.run.DvrpMode(value=drt)}[Scopes.SINGLETON]
2026-06-18T12:17:33,469  INFO Injector:87   --> source: org.matsim.contrib.dvrp.run.DvrpModes.registerDvrpMode(DvrpModes.java:40)
2026-06-18T12:17:33,470  INFO Injector:89   --> scope: eager singleton
2026-06-18T12:17:33,470  INFO Injector:94   ==full==> InstanceBinding{key=Key[type=org.matsim.contrib.dvrp.run.DvrpMode, annotation=@com.google.inject.internal.Element(setName=,uniqueId=165, type=MULTIBINDER, keyType=)], source=org.matsim.contrib.dvrp.run.DvrpModes.registerDvrpMode(DvrpModes.java:40), instance=@org.matsim.contrib.dvrp.run.DvrpMode(value=drt)}
2026-06-18T12:17:33,470  INFO Injector:96 
2026-06-18T12:17:33,471  INFO Injector:85 org.matsim.api.core.v01.network.Network @org.matsim.contrib.dvrp.run.DvrpMode(value=drt)
2026-06-18T12:17:33,471  INFO Injector:86   --> provider: FactoryProxy{key=Key[type=org.matsim.api.core.v01.network.Network, annotation=@org.matsim.contrib.dvrp.run.DvrpMode(value=drt)], provider=Key[type=org.matsim.contrib.dvrp.router.DvrpGlobalRoutingNetworkProvider, annotation=[none]][Scopes.SINGLETON]}
2026-06-18T12:17:33,471  INFO Injector:87   --> source: org.matsim.core.modal.AbstractModalModule.bindModal(AbstractModalModule.java:59)
2026-06-18T12:17:33,472  INFO Injector:89   --> scope: Scopes.NO_SCOPE
2026-06-18T12:17:33,472  INFO Injector:92   --> target: Key[type=org.matsim.api.core.v01.network.Network, annotation=@com.google.inject.name.Named("dvrp_routing")]
2026-06-18T12:17:33,473  INFO Injector:94   ==full==> LinkedKeyBinding{key=Key[type=org.matsim.api.core.v01.network.Network, annotation=@org.matsim.contrib.dvrp.run.DvrpMode(value=drt)], source=org.matsim.core.modal.AbstractModalModule.bindModal(AbstractModalModule.java:59), scope=Scopes.NO_SCOPE, target=Key[type=org.matsim.api.core.v01.network.Network, annotation=@com.google.inject.name.Named("dvrp_routing")]}
2026-06-18T12:17:33,475  INFO Injector:96 
2026-06-18T12:17:33,476  INFO Injector:85 org.matsim.contrib.zone.skims.TravelTimeMatrix @org.matsim.contrib.dvrp.run.DvrpMode(value=drt)
2026-06-18T12:17:33,477  INFO Injector:86   --> provider: FactoryProxy{key=Key[type=org.matsim.contrib.zone.skims.TravelTimeMatrix, annotation=@org.matsim.contrib.dvrp.run.DvrpMode(value=drt)], provider=org.matsim.contrib.dvrp.run.DvrpModule$1@50fb33a[Scopes.SINGLETON]}
2026-06-18T12:17:33,477  INFO Injector:87   --> source: org.matsim.core.modal.AbstractModalModule.bindModal(AbstractModalModule.java:59)
2026-06-18T12:17:33,478  INFO Injector:89   --> scope: Scopes.NO_SCOPE
2026-06-18T12:17:33,478  INFO Injector:92   --> target: Key[type=org.matsim.contrib.zone.skims.TravelTimeMatrix, annotation=[none]]
2026-06-18T12:17:33,478  INFO Injector:94   ==full==> LinkedKeyBinding{key=Key[type=org.matsim.contrib.zone.skims.TravelTimeMatrix, annotation=@org.matsim.contrib.dvrp.run.DvrpMode(value=drt)], source=org.matsim.core.modal.AbstractModalModule.bindModal(AbstractModalModule.java:59), scope=Scopes.NO_SCOPE, target=Key[type=org.matsim.contrib.zone.skims.TravelTimeMatrix, annotation=[none]]}
2026-06-18T12:17:33,479  INFO Injector:96 
2026-06-18T12:17:33,480  INFO Injector:85 org.matsim.core.router.util.TravelTime @org.matsim.contrib.dvrp.run.DvrpMode(value=drt)
2026-06-18T12:17:33,480  INFO Injector:86   --> provider: FactoryProxy{key=Key[type=org.matsim.core.router.util.TravelTime, annotation=@org.matsim.contrib.dvrp.run.DvrpMode(value=drt)], provider=FactoryProxy{key=Key[type=org.matsim.core.router.util.TravelTime, annotation=@com.google.inject.name.Named("dvrp_estimated")], provider=FactoryProxy{key=Key[type=org.matsim.contrib.dvrp.trafficmonitoring.DvrpTravelTimeEstimator, annotation=[none]], provider=com.google.inject.internal.ConstructorBindingImpl$Factory@3127cb44[Scopes.SINGLETON]}}}
2026-06-18T12:17:33,481  INFO Injector:87   --> source: org.matsim.core.modal.AbstractModalModule.bindModal(AbstractModalModule.java:59)
2026-06-18T12:17:33,482  INFO Injector:89   --> scope: Scopes.NO_SCOPE
2026-06-18T12:17:33,483  INFO Injector:92   --> target: Key[type=org.matsim.core.router.util.TravelTime, annotation=@com.google.inject.name.Named("dvrp_estimated")]
2026-06-18T12:17:33,483  INFO Injector:94   ==full==> LinkedKeyBinding{key=Key[type=org.matsim.core.router.util.TravelTime, annotation=@org.matsim.contrib.dvrp.run.DvrpMode(value=drt)], source=org.matsim.core.modal.AbstractModalModule.bindModal(AbstractModalModule.java:59), scope=Scopes.NO_SCOPE, target=Key[type=org.matsim.core.router.util.TravelTime, annotation=@com.google.inject.name.Named("dvrp_estimated")]}
2026-06-18T12:17:33,484  INFO Injector:96 
2026-06-18T12:17:33,484  INFO Injector:85 org.matsim.core.router.costcalculators.TravelDisutilityFactory @org.matsim.contrib.dvrp.run.DvrpMode(value=drt)
2026-06-18T12:17:33,484  INFO Injector:86   --> provider: ConstantFactory{value=org.matsim.contrib.drt.run.DrtModeModule$$Lambda/0x0000000037356fd8@3234474}[Scopes.SINGLETON]
2026-06-18T12:17:33,485  INFO Injector:87   --> source: org.matsim.core.modal.AbstractModalModule.bindModal(AbstractModalModule.java:59)
2026-06-18T12:17:33,485  INFO Injector:89   --> scope: eager singleton
2026-06-18T12:17:33,485  INFO Injector:94   ==full==> InstanceBinding{key=Key[type=org.matsim.core.router.costcalculators.TravelDisutilityFactory, annotation=@org.matsim.contrib.dvrp.run.DvrpMode(value=drt)], source=org.matsim.core.modal.AbstractModalModule.bindModal(AbstractModalModule.java:59), instance=org.matsim.contrib.drt.run.DrtModeModule$$Lambda/0x0000000037356fd8@3234474}
2026-06-18T12:17:33,486  INFO Injector:96 
2026-06-18T12:17:33,486  INFO Injector:85 org.matsim.contrib.dvrp.fleet.FleetSpecification @org.matsim.contrib.dvrp.run.DvrpMode(value=drt)
2026-06-18T12:17:33,486  INFO Injector:86   --> provider: org.matsim.contrib.dvrp.fleet.FleetModule$$Lambda/0x0000000037358000@631cb129[Scopes.SINGLETON]
2026-06-18T12:17:33,486  INFO Injector:87   --> source: org.matsim.core.modal.AbstractModalModule.bindModal(AbstractModalModule.java:59)
2026-06-18T12:17:33,486  INFO Injector:89   --> scope: eager singleton
2026-06-18T12:17:33,487  INFO Injector:94   ==full==> ProviderInstanceBinding{key=Key[type=org.matsim.contrib.dvrp.fleet.FleetSpecification, annotation=@org.matsim.contrib.dvrp.run.DvrpMode(value=drt)], source=org.matsim.core.modal.AbstractModalModule.bindModal(AbstractModalModule.java:59), scope=eager singleton, provider=org.matsim.contrib.dvrp.fleet.FleetModule$$Lambda/0x0000000037358000@631cb129}
2026-06-18T12:17:33,487  INFO Injector:96 
2026-06-18T12:17:33,488  INFO Injector:85 org.matsim.core.mobsim.qsim.AbstractQSimModule @com.google.inject.internal.Element(setName=,uniqueId=166, type=MULTIBINDER, keyType=)
2026-06-18T12:17:33,488  INFO Injector:86   --> provider: ConstantFactory{value=org.matsim.contrib.dvrp.fleet.FleetModule$2@3d64c581}[Scopes.SINGLETON]
2026-06-18T12:17:33,488  INFO Injector:87   --> source: org.matsim.contrib.dvrp.fleet.FleetModule.install(FleetModule.java:92)
2026-06-18T12:17:33,488  INFO Injector:89   --> scope: eager singleton
2026-06-18T12:17:33,489  INFO Injector:94   ==full==> InstanceBinding{key=Key[type=org.matsim.core.mobsim.qsim.AbstractQSimModule, annotation=@com.google.inject.internal.Element(setName=,uniqueId=166, type=MULTIBINDER, keyType=)], source=org.matsim.contrib.dvrp.fleet.FleetModule.install(FleetModule.java:92), instance=org.matsim.contrib.dvrp.fleet.FleetModule$2@3d64c581}
2026-06-18T12:17:33,489  INFO Injector:96 
2026-06-18T12:17:33,489  INFO Injector:85 org.matsim.contrib.dvrp.fleet.FleetControlerListener @org.matsim.contrib.dvrp.run.DvrpMode(value=drt)
2026-06-18T12:17:33,489  INFO Injector:86   --> provider: org.matsim.core.modal.ModalProviders$1@75d982d3[Scopes.SINGLETON]
2026-06-18T12:17:33,489  INFO Injector:87   --> source: org.matsim.core.modal.AbstractModalModule.bindModal(AbstractModalModule.java:59)
2026-06-18T12:17:33,490  INFO Injector:89   --> scope: Scopes.SINGLETON
2026-06-18T12:17:33,490  INFO Injector:94   ==full==> ProviderInstanceBinding{key=Key[type=org.matsim.contrib.dvrp.fleet.FleetControlerListener, annotation=@org.matsim.contrib.dvrp.run.DvrpMode(value=drt)], source=org.matsim.core.modal.AbstractModalModule.bindModal(AbstractModalModule.java:59), scope=Scopes.SINGLETON, provider=org.matsim.core.modal.ModalProviders$1@75d982d3}
2026-06-18T12:17:33,490  INFO Injector:96 
2026-06-18T12:17:33,490  INFO Injector:85 org.matsim.core.controler.listener.ControlerListener @com.google.inject.internal.Element(setName=,uniqueId=167, type=MULTIBINDER, keyType=)
2026-06-18T12:17:33,491  INFO Injector:86   --> provider: FactoryProxy{key=Key[type=org.matsim.core.controler.listener.ControlerListener, annotation=@com.google.inject.internal.Element(setName=,uniqueId=167, type=MULTIBINDER, keyType=)], provider=org.matsim.core.modal.ModalProviders$1@75d982d3[Scopes.SINGLETON]}
2026-06-18T12:17:33,491  INFO Injector:87   --> source: org.matsim.contrib.dvrp.fleet.FleetModule.install(FleetModule.java:111)
2026-06-18T12:17:33,491  INFO Injector:89   --> scope: Scopes.NO_SCOPE
2026-06-18T12:17:33,491  INFO Injector:92   --> target: Key[type=org.matsim.contrib.dvrp.fleet.FleetControlerListener, annotation=@org.matsim.contrib.dvrp.run.DvrpMode(value=drt)]
2026-06-18T12:17:33,492  INFO Injector:94   ==full==> LinkedKeyBinding{key=Key[type=org.matsim.core.controler.listener.ControlerListener, annotation=@com.google.inject.internal.Element(setName=,uniqueId=167, type=MULTIBINDER, keyType=)], source=org.matsim.contrib.dvrp.fleet.FleetModule.install(FleetModule.java:111), scope=Scopes.NO_SCOPE, target=Key[type=org.matsim.contrib.dvrp.fleet.FleetControlerListener, annotation=@org.matsim.contrib.dvrp.run.DvrpMode(value=drt)]}
2026-06-18T12:17:33,492  INFO Injector:96 
2026-06-18T12:17:33,492  INFO Injector:85 org.matsim.vehicles.VehicleType @org.matsim.contrib.dvrp.run.DvrpMode(value=drt)
2026-06-18T12:17:33,493  INFO Injector:86   --> provider: ConstantFactory{value=org.matsim.vehicles.VehicleType@3d20e575}[Scopes.SINGLETON]
2026-06-18T12:17:33,493  INFO Injector:87   --> source: org.matsim.core.modal.AbstractModalModule.bindModal(AbstractModalModule.java:59)
2026-06-18T12:17:33,493  INFO Injector:89   --> scope: eager singleton
2026-06-18T12:17:33,494  INFO Injector:94   ==full==> InstanceBinding{key=Key[type=org.matsim.vehicles.VehicleType, annotation=@org.matsim.contrib.dvrp.run.DvrpMode(value=drt)], source=org.matsim.core.modal.AbstractModalModule.bindModal(AbstractModalModule.java:59), instance=org.matsim.vehicles.VehicleType@3d20e575}
2026-06-18T12:17:33,494  INFO Injector:96 
2026-06-18T12:17:33,494  INFO Injector:85 org.matsim.contrib.drt.analysis.zonal.DrtZonalSystem @org.matsim.contrib.dvrp.run.DvrpMode(value=drt)
2026-06-18T12:17:33,495  INFO Injector:86   --> provider: org.matsim.core.modal.ModalProviders$1@4f89331f[Scopes.SINGLETON]
2026-06-18T12:17:33,495  INFO Injector:87   --> source: org.matsim.core.modal.AbstractModalModule.bindModal(AbstractModalModule.java:59)
2026-06-18T12:17:33,495  INFO Injector:89   --> scope: eager singleton
2026-06-18T12:17:33,495  INFO Injector:94   ==full==> ProviderInstanceBinding{key=Key[type=org.matsim.contrib.drt.analysis.zonal.DrtZonalSystem, annotation=@org.matsim.contrib.dvrp.run.DvrpMode(value=drt)], source=org.matsim.core.modal.AbstractModalModule.bindModal(AbstractModalModule.java:59), scope=eager singleton, provider=org.matsim.core.modal.ModalProviders$1@4f89331f}
2026-06-18T12:17:33,496  INFO Injector:96 
2026-06-18T12:17:33,498  INFO Injector:85 org.matsim.contrib.drt.analysis.zonal.DrtZoneTargetLinkSelector @org.matsim.contrib.dvrp.run.DvrpMode(value=drt)
2026-06-18T12:17:33,498  INFO Injector:86   --> provider: org.matsim.core.modal.ModalProviders$1@618ff5c2[Scopes.SINGLETON]
2026-06-18T12:17:33,498  INFO Injector:87   --> source: org.matsim.core.modal.AbstractModalModule.bindModal(AbstractModalModule.java:59)
2026-06-18T12:17:33,499  INFO Injector:89   --> scope: eager singleton
2026-06-18T12:17:33,499  INFO Injector:94   ==full==> ProviderInstanceBinding{key=Key[type=org.matsim.contrib.drt.analysis.zonal.DrtZoneTargetLinkSelector, annotation=@org.matsim.contrib.dvrp.run.DvrpMode(value=drt)], source=org.matsim.core.modal.AbstractModalModule.bindModal(AbstractModalModule.java:59), scope=eager singleton, provider=org.matsim.core.modal.ModalProviders$1@618ff5c2}
2026-06-18T12:17:33,499  INFO Injector:96 
2026-06-18T12:17:33,499  INFO Injector:85 org.matsim.contrib.drt.analysis.zonal.ZonalIdleVehicleXYVisualiser @org.matsim.contrib.dvrp.run.DvrpMode(value=drt)
2026-06-18T12:17:33,500  INFO Injector:86   --> provider: org.matsim.core.modal.ModalProviders$1@16727bf0[Scopes.SINGLETON]
2026-06-18T12:17:33,500  INFO Injector:87   --> source: org.matsim.core.modal.AbstractModalModule.bindModal(AbstractModalModule.java:59)
2026-06-18T12:17:33,501  INFO Injector:89   --> scope: eager singleton
2026-06-18T12:17:33,501  INFO Injector:94   ==full==> ProviderInstanceBinding{key=Key[type=org.matsim.contrib.drt.analysis.zonal.ZonalIdleVehicleXYVisualiser, annotation=@org.matsim.contrib.dvrp.run.DvrpMode(value=drt)], source=org.matsim.core.modal.AbstractModalModule.bindModal(AbstractModalModule.java:59), scope=eager singleton, provider=org.matsim.core.modal.ModalProviders$1@16727bf0}
2026-06-18T12:17:33,501  INFO Injector:96 
2026-06-18T12:17:33,501  INFO Injector:85 org.matsim.core.controler.listener.ControlerListener @com.google.inject.internal.Element(setName=,uniqueId=168, type=MULTIBINDER, keyType=)
2026-06-18T12:17:33,502  INFO Injector:86   --> provider: FactoryProxy{key=Key[type=org.matsim.core.controler.listener.ControlerListener, annotation=@com.google.inject.internal.Element(setName=,uniqueId=168, type=MULTIBINDER, keyType=)], provider=org.matsim.core.modal.ModalProviders$1@16727bf0[Scopes.SINGLETON]}
2026-06-18T12:17:33,502  INFO Injector:87   --> source: org.matsim.contrib.drt.analysis.zonal.DrtModeZonalSystemModule.install(DrtModeZonalSystemModule.java:97)
2026-06-18T12:17:33,502  INFO Injector:89   --> scope: Scopes.NO_SCOPE
2026-06-18T12:17:33,502  INFO Injector:92   --> target: Key[type=org.matsim.contrib.drt.analysis.zonal.ZonalIdleVehicleXYVisualiser, annotation=@org.matsim.contrib.dvrp.run.DvrpMode(value=drt)]
2026-06-18T12:17:33,503  INFO Injector:94   ==full==> LinkedKeyBinding{key=Key[type=org.matsim.core.controler.listener.ControlerListener, annotation=@com.google.inject.internal.Element(setName=,uniqueId=168, type=MULTIBINDER, keyType=)], source=org.matsim.contrib.drt.analysis.zonal.DrtModeZonalSystemModule.install(DrtModeZonalSystemModule.java:97), scope=Scopes.NO_SCOPE, target=Key[type=org.matsim.contrib.drt.analysis.zonal.ZonalIdleVehicleXYVisualiser, annotation=@org.matsim.contrib.dvrp.run.DvrpMode(value=drt)]}
2026-06-18T12:17:33,503  INFO Injector:96 
2026-06-18T12:17:33,503  INFO Injector:85 org.matsim.core.events.handler.EventHandler @com.google.inject.internal.Element(setName=,uniqueId=169, type=MULTIBINDER, keyType=)
2026-06-18T12:17:33,503  INFO Injector:86   --> provider: FactoryProxy{key=Key[type=org.matsim.core.events.handler.EventHandler, annotation=@com.google.inject.internal.Element(setName=,uniqueId=169, type=MULTIBINDER, keyType=)], provider=org.matsim.core.modal.ModalProviders$1@16727bf0[Scopes.SINGLETON]}
2026-06-18T12:17:33,504  INFO Injector:87   --> source: org.matsim.contrib.drt.analysis.zonal.DrtModeZonalSystemModule.install(DrtModeZonalSystemModule.java:98)
2026-06-18T12:17:33,504  INFO Injector:89   --> scope: Scopes.NO_SCOPE
2026-06-18T12:17:33,504  INFO Injector:92   --> target: Key[type=org.matsim.contrib.drt.analysis.zonal.ZonalIdleVehicleXYVisualiser, annotation=@org.matsim.contrib.dvrp.run.DvrpMode(value=drt)]
2026-06-18T12:17:33,504  INFO Injector:94   ==full==> LinkedKeyBinding{key=Key[type=org.matsim.core.events.handler.EventHandler, annotation=@com.google.inject.internal.Element(setName=,uniqueId=169, type=MULTIBINDER, keyType=)], source=org.matsim.contrib.drt.analysis.zonal.DrtModeZonalSystemModule.install(DrtModeZonalSystemModule.java:98), scope=Scopes.NO_SCOPE, target=Key[type=org.matsim.contrib.drt.analysis.zonal.ZonalIdleVehicleXYVisualiser, annotation=@org.matsim.contrib.dvrp.run.DvrpMode(value=drt)]}
2026-06-18T12:17:33,505  INFO Injector:96 
2026-06-18T12:17:33,505  INFO Injector:85 org.matsim.contrib.drt.analysis.zonal.DrtZonalWaitTimesAnalyzer @org.matsim.contrib.dvrp.run.DvrpMode(value=drt)
2026-06-18T12:17:33,505  INFO Injector:86   --> provider: org.matsim.core.modal.ModalProviders$1@2f84acf7[Scopes.SINGLETON]
2026-06-18T12:17:33,506  INFO Injector:87   --> source: org.matsim.core.modal.AbstractModalModule.bindModal(AbstractModalModule.java:59)
2026-06-18T12:17:33,506  INFO Injector:89   --> scope: eager singleton
2026-06-18T12:17:33,507  INFO Injector:94   ==full==> ProviderInstanceBinding{key=Key[type=org.matsim.contrib.drt.analysis.zonal.DrtZonalWaitTimesAnalyzer, annotation=@org.matsim.contrib.dvrp.run.DvrpMode(value=drt)], source=org.matsim.core.modal.AbstractModalModule.bindModal(AbstractModalModule.java:59), scope=eager singleton, provider=org.matsim.core.modal.ModalProviders$1@2f84acf7}
2026-06-18T12:17:33,507  INFO Injector:96 
2026-06-18T12:17:33,507  INFO Injector:85 org.matsim.core.controler.listener.ControlerListener @com.google.inject.internal.Element(setName=,uniqueId=170, type=MULTIBINDER, keyType=)
2026-06-18T12:17:33,509  INFO Injector:86   --> provider: FactoryProxy{key=Key[type=org.matsim.core.controler.listener.ControlerListener, annotation=@com.google.inject.internal.Element(setName=,uniqueId=170, type=MULTIBINDER, keyType=)], provider=org.matsim.core.modal.ModalProviders$1@2f84acf7[Scopes.SINGLETON]}
2026-06-18T12:17:33,509  INFO Injector:87   --> source: org.matsim.contrib.drt.analysis.zonal.DrtModeZonalSystemModule.install(DrtModeZonalSystemModule.java:103)
2026-06-18T12:17:33,509  INFO Injector:89   --> scope: Scopes.NO_SCOPE
2026-06-18T12:17:33,510  INFO Injector:92   --> target: Key[type=org.matsim.contrib.drt.analysis.zonal.DrtZonalWaitTimesAnalyzer, annotation=@org.matsim.contrib.dvrp.run.DvrpMode(value=drt)]
2026-06-18T12:17:33,510  INFO Injector:94   ==full==> LinkedKeyBinding{key=Key[type=org.matsim.core.controler.listener.ControlerListener, annotation=@com.google.inject.internal.Element(setName=,uniqueId=170, type=MULTIBINDER, keyType=)], source=org.matsim.contrib.drt.analysis.zonal.DrtModeZonalSystemModule.install(DrtModeZonalSystemModule.java:103), scope=Scopes.NO_SCOPE, target=Key[type=org.matsim.contrib.drt.analysis.zonal.DrtZonalWaitTimesAnalyzer, annotation=@org.matsim.contrib.dvrp.run.DvrpMode(value=drt)]}
2026-06-18T12:17:33,510  INFO Injector:96 
2026-06-18T12:17:33,511  INFO Injector:85 org.matsim.core.mobsim.qsim.AbstractQSimModule @com.google.inject.internal.Element(setName=,uniqueId=171, type=MULTIBINDER, keyType=)
2026-06-18T12:17:33,511  INFO Injector:86   --> provider: ConstantFactory{value=org.matsim.contrib.drt.optimizer.rebalancing.mincostflow.DrtModeMinCostFlowRebalancingModule$1@5ec5ea63}[Scopes.SINGLETON]
2026-06-18T12:17:33,511  INFO Injector:87   --> source: org.matsim.contrib.drt.optimizer.rebalancing.mincostflow.DrtModeMinCostFlowRebalancingModule.install(DrtModeMinCostFlowRebalancingModule.java:57)
2026-06-18T12:17:33,511  INFO Injector:89   --> scope: eager singleton
2026-06-18T12:17:33,512  INFO Injector:94   ==full==> InstanceBinding{key=Key[type=org.matsim.core.mobsim.qsim.AbstractQSimModule, annotation=@com.google.inject.internal.Element(setName=,uniqueId=171, type=MULTIBINDER, keyType=)], source=org.matsim.contrib.drt.optimizer.rebalancing.mincostflow.DrtModeMinCostFlowRebalancingModule.install(DrtModeMinCostFlowRebalancingModule.java:57), instance=org.matsim.contrib.drt.optimizer.rebalancing.mincostflow.DrtModeMinCostFlowRebalancingModule$1@5ec5ea63}
2026-06-18T12:17:33,512  INFO Injector:96 
2026-06-18T12:17:33,512  INFO Injector:85 org.matsim.contrib.drt.optimizer.rebalancing.demandestimator.PreviousIterationDRTDemandEstimator @org.matsim.contrib.dvrp.run.DvrpMode(value=drt)
2026-06-18T12:17:33,512  INFO Injector:86   --> provider: org.matsim.core.modal.ModalProviders$1@291373d3[Scopes.SINGLETON]
2026-06-18T12:17:33,513  INFO Injector:87   --> source: org.matsim.core.modal.AbstractModalModule.bindModal(AbstractModalModule.java:59)
2026-06-18T12:17:33,514  INFO Injector:89   --> scope: eager singleton
2026-06-18T12:17:33,514  INFO Injector:94   ==full==> ProviderInstanceBinding{key=Key[type=org.matsim.contrib.drt.optimizer.rebalancing.demandestimator.PreviousIterationDRTDemandEstimator, annotation=@org.matsim.contrib.dvrp.run.DvrpMode(value=drt)], source=org.matsim.core.modal.AbstractModalModule.bindModal(AbstractModalModule.java:59), scope=eager singleton, provider=org.matsim.core.modal.ModalProviders$1@291373d3}
2026-06-18T12:17:33,515  INFO Injector:96 
2026-06-18T12:17:33,516  INFO Injector:85 org.matsim.contrib.drt.optimizer.rebalancing.demandestimator.ZonalDemandEstimator @org.matsim.contrib.dvrp.run.DvrpMode(value=drt)
2026-06-18T12:17:33,516  INFO Injector:86   --> provider: FactoryProxy{key=Key[type=org.matsim.contrib.drt.optimizer.rebalancing.demandestimator.ZonalDemandEstimator, annotation=@org.matsim.contrib.dvrp.run.DvrpMode(value=drt)], provider=org.matsim.core.modal.ModalProviders$1@291373d3[Scopes.SINGLETON]}
2026-06-18T12:17:33,516  INFO Injector:87   --> source: org.matsim.core.modal.AbstractModalModule.bindModal(AbstractModalModule.java:59)
2026-06-18T12:17:33,516  INFO Injector:89   --> scope: Scopes.NO_SCOPE
2026-06-18T12:17:33,517  INFO Injector:92   --> target: Key[type=org.matsim.contrib.drt.optimizer.rebalancing.demandestimator.PreviousIterationDRTDemandEstimator, annotation=@org.matsim.contrib.dvrp.run.DvrpMode(value=drt)]
2026-06-18T12:17:33,517  INFO Injector:94   ==full==> LinkedKeyBinding{key=Key[type=org.matsim.contrib.drt.optimizer.rebalancing.demandestimator.ZonalDemandEstimator, annotation=@org.matsim.contrib.dvrp.run.DvrpMode(value=drt)], source=org.matsim.core.modal.AbstractModalModule.bindModal(AbstractModalModule.java:59), scope=Scopes.NO_SCOPE, target=Key[type=org.matsim.contrib.drt.optimizer.rebalancing.demandestimator.PreviousIterationDRTDemandEstimator, annotation=@org.matsim.contrib.dvrp.run.DvrpMode(value=drt)]}
2026-06-18T12:17:33,517  INFO Injector:96 
2026-06-18T12:17:33,517  INFO Injector:85 org.matsim.core.events.handler.EventHandler @com.google.inject.internal.Element(setName=,uniqueId=172, type=MULTIBINDER, keyType=)
2026-06-18T12:17:33,517  INFO Injector:86   --> provider: FactoryProxy{key=Key[type=org.matsim.core.events.handler.EventHandler, annotation=@com.google.inject.internal.Element(setName=,uniqueId=172, type=MULTIBINDER, keyType=)], provider=org.matsim.core.modal.ModalProviders$1@291373d3[Scopes.SINGLETON]}
2026-06-18T12:17:33,518  INFO Injector:87   --> source: org.matsim.contrib.drt.optimizer.rebalancing.mincostflow.DrtModeMinCostFlowRebalancingModule.install(DrtModeMinCostFlowRebalancingModule.java:107)
2026-06-18T12:17:33,518  INFO Injector:89   --> scope: Scopes.NO_SCOPE
2026-06-18T12:17:33,518  INFO Injector:92   --> target: Key[type=org.matsim.contrib.drt.optimizer.rebalancing.demandestimator.PreviousIterationDRTDemandEstimator, annotation=@org.matsim.contrib.dvrp.run.DvrpMode(value=drt)]
2026-06-18T12:17:33,518  INFO Injector:94   ==full==> LinkedKeyBinding{key=Key[type=org.matsim.core.events.handler.EventHandler, annotation=@com.google.inject.internal.Element(setName=,uniqueId=172, type=MULTIBINDER, keyType=)], source=org.matsim.contrib.drt.optimizer.rebalancing.mincostflow.DrtModeMinCostFlowRebalancingModule.install(DrtModeMinCostFlowRebalancingModule.java:107), scope=Scopes.NO_SCOPE, target=Key[type=org.matsim.contrib.drt.optimizer.rebalancing.demandestimator.PreviousIterationDRTDemandEstimator, annotation=@org.matsim.contrib.dvrp.run.DvrpMode(value=drt)]}
2026-06-18T12:17:33,518  INFO Injector:96 
2026-06-18T12:17:33,518  INFO Injector:85 org.matsim.core.router.RoutingModule @com.google.inject.name.Named("drt")
2026-06-18T12:17:33,518  INFO Injector:86   --> provider: org.matsim.contrib.dvrp.router.DvrpRoutingModuleProvider@372ca2d6
2026-06-18T12:17:33,519  INFO Injector:87   --> source: org.matsim.contrib.drt.run.DrtModeRoutingModule.install(DrtModeRoutingModule.java:79)
2026-06-18T12:17:33,519  INFO Injector:89   --> scope: Scopes.NO_SCOPE
2026-06-18T12:17:33,520  INFO Injector:94   ==full==> ProviderInstanceBinding{key=Key[type=org.matsim.core.router.RoutingModule, annotation=@com.google.inject.name.Named("drt")], source=org.matsim.contrib.drt.run.DrtModeRoutingModule.install(DrtModeRoutingModule.java:79), scope=Scopes.NO_SCOPE, provider=org.matsim.contrib.dvrp.router.DvrpRoutingModuleProvider@372ca2d6}
2026-06-18T12:17:33,524  INFO Injector:96 
2026-06-18T12:17:33,525  INFO Injector:85 org.matsim.core.router.RoutingModule @com.google.inject.internal.Element(setName=@org.matsim.contrib.dvrp.run.DvrpMode(value=drt),uniqueId=173, type=MAPBINDER, keyType=org.matsim.contrib.dvrp.router.DvrpRoutingModuleProvider$Stage)
2026-06-18T12:17:33,525  INFO Injector:86   --> provider: org.matsim.contrib.dvrp.router.DvrpModeRoutingModule$DefaultMainLegRouterProvider@38ed139b
2026-06-18T12:17:33,526  INFO Injector:87   --> source: org.matsim.contrib.drt.run.DrtModeRoutingModule.install(DrtModeRoutingModule.java:80)
2026-06-18T12:17:33,526  INFO Injector:89   --> scope: Scopes.NO_SCOPE
2026-06-18T12:17:33,527  INFO Injector:94   ==full==> ProviderInstanceBinding{key=Key[type=org.matsim.core.router.RoutingModule, annotation=@com.google.inject.internal.Element(setName=@org.matsim.contrib.dvrp.run.DvrpMode(value=drt),uniqueId=173, type=MAPBINDER, keyType=org.matsim.contrib.dvrp.router.DvrpRoutingModuleProvider$Stage)], source=org.matsim.contrib.drt.run.DrtModeRoutingModule.install(DrtModeRoutingModule.java:80), scope=Scopes.NO_SCOPE, provider=org.matsim.contrib.dvrp.router.DvrpModeRoutingModule$DefaultMainLegRouterProvider@38ed139b}
2026-06-18T12:17:33,528  INFO Injector:96 
2026-06-18T12:17:33,529  INFO Injector:85 org.matsim.contrib.dvrp.router.DefaultMainLegRouter$RouteCreator @org.matsim.contrib.dvrp.run.DvrpMode(value=drt)
2026-06-18T12:17:33,529  INFO Injector:86   --> provider: org.matsim.contrib.drt.run.DrtModeRoutingModule$DrtRouteCreatorProvider@a5272be
2026-06-18T12:17:33,531  INFO Injector:87   --> source: org.matsim.core.modal.AbstractModalModule.bindModal(AbstractModalModule.java:59)
2026-06-18T12:17:33,531  INFO Injector:89   --> scope: Scopes.NO_SCOPE
2026-06-18T12:17:33,532  INFO Injector:94   ==full==> ProviderInstanceBinding{key=Key[type=org.matsim.contrib.dvrp.router.DefaultMainLegRouter$RouteCreator, annotation=@org.matsim.contrib.dvrp.run.DvrpMode(value=drt)], source=org.matsim.core.modal.AbstractModalModule.bindModal(AbstractModalModule.java:59), scope=Scopes.NO_SCOPE, provider=org.matsim.contrib.drt.run.DrtModeRoutingModule$DrtRouteCreatorProvider@a5272be}
2026-06-18T12:17:33,532  INFO Injector:96 
2026-06-18T12:17:33,532  INFO Injector:85 org.matsim.contrib.drt.routing.DrtStopNetwork @org.matsim.contrib.dvrp.run.DvrpMode(value=drt)
2026-06-18T12:17:33,533  INFO Injector:86   --> provider: org.matsim.contrib.drt.run.DrtModeRoutingModule$DrtStopNetworkProvider@58ba5b30[Scopes.SINGLETON]
2026-06-18T12:17:33,533  INFO Injector:87   --> source: org.matsim.core.modal.AbstractModalModule.bindModal(AbstractModalModule.java:59)
2026-06-18T12:17:33,533  INFO Injector:89   --> scope: eager singleton
2026-06-18T12:17:33,534  INFO Injector:94   ==full==> ProviderInstanceBinding{key=Key[type=org.matsim.contrib.drt.routing.DrtStopNetwork, annotation=@org.matsim.contrib.dvrp.run.DvrpMode(value=drt)], source=org.matsim.core.modal.AbstractModalModule.bindModal(AbstractModalModule.java:59), scope=eager singleton, provider=org.matsim.contrib.drt.run.DrtModeRoutingModule$DrtStopNetworkProvider@58ba5b30}
2026-06-18T12:17:33,534  INFO Injector:96 
2026-06-18T12:17:33,534  INFO Injector:85 org.matsim.contrib.dvrp.router.DvrpRoutingModule$AccessEgressFacilityFinder @org.matsim.contrib.dvrp.run.DvrpMode(value=drt)
2026-06-18T12:17:33,535  INFO Injector:86   --> provider: org.matsim.core.modal.ModalProviders$1@4dba773d[Scopes.SINGLETON]
2026-06-18T12:17:33,535  INFO Injector:87   --> source: org.matsim.core.modal.AbstractModalModule.bindModal(AbstractModalModule.java:59)
2026-06-18T12:17:33,536  INFO Injector:89   --> scope: eager singleton
2026-06-18T12:17:33,536  INFO Injector:94   ==full==> ProviderInstanceBinding{key=Key[type=org.matsim.contrib.dvrp.router.DvrpRoutingModule$AccessEgressFacilityFinder, annotation=@org.matsim.contrib.dvrp.run.DvrpMode(value=drt)], source=org.matsim.core.modal.AbstractModalModule.bindModal(AbstractModalModule.java:59), scope=eager singleton, provider=org.matsim.core.modal.ModalProviders$1@4dba773d}
2026-06-18T12:17:33,536  INFO Injector:96 
2026-06-18T12:17:33,537  INFO Injector:85 org.matsim.contrib.drt.routing.DrtRouteUpdater @org.matsim.contrib.dvrp.run.DvrpMode(value=drt)
2026-06-18T12:17:33,537  INFO Injector:86   --> provider: org.matsim.contrib.drt.run.DrtModeRoutingModule$1@1d9bd4da[Scopes.SINGLETON]
2026-06-18T12:17:33,538  INFO Injector:87   --> source: org.matsim.core.modal.AbstractModalModule.bindModal(AbstractModalModule.java:59)
2026-06-18T12:17:33,538  INFO Injector:89   --> scope: eager singleton
2026-06-18T12:17:33,539  INFO Injector:94   ==full==> ProviderInstanceBinding{key=Key[type=org.matsim.contrib.drt.routing.DrtRouteUpdater, annotation=@org.matsim.contrib.dvrp.run.DvrpMode(value=drt)], source=org.matsim.core.modal.AbstractModalModule.bindModal(AbstractModalModule.java:59), scope=eager singleton, provider=org.matsim.contrib.drt.run.DrtModeRoutingModule$1@1d9bd4da}
2026-06-18T12:17:33,539  INFO Injector:96 
2026-06-18T12:17:33,539  INFO Injector:85 org.matsim.core.controler.listener.ControlerListener @com.google.inject.internal.Element(setName=,uniqueId=175, type=MULTIBINDER, keyType=)
2026-06-18T12:17:33,539  INFO Injector:86   --> provider: FactoryProxy{key=Key[type=org.matsim.core.controler.listener.ControlerListener, annotation=@com.google.inject.internal.Element(setName=,uniqueId=175, type=MULTIBINDER, keyType=)], provider=org.matsim.contrib.drt.run.DrtModeRoutingModule$1@1d9bd4da[Scopes.SINGLETON]}
2026-06-18T12:17:33,540  INFO Injector:87   --> source: org.matsim.contrib.drt.run.DrtModeRoutingModule.install(DrtModeRoutingModule.java:115)
2026-06-18T12:17:33,540  INFO Injector:89   --> scope: Scopes.NO_SCOPE
2026-06-18T12:17:33,540  INFO Injector:92   --> target: Key[type=org.matsim.contrib.drt.routing.DrtRouteUpdater, annotation=@org.matsim.contrib.dvrp.run.DvrpMode(value=drt)]
2026-06-18T12:17:33,540  INFO Injector:94   ==full==> LinkedKeyBinding{key=Key[type=org.matsim.core.controler.listener.ControlerListener, annotation=@com.google.inject.internal.Element(setName=,uniqueId=175, type=MULTIBINDER, keyType=)], source=org.matsim.contrib.drt.run.DrtModeRoutingModule.install(DrtModeRoutingModule.java:115), scope=Scopes.NO_SCOPE, target=Key[type=org.matsim.contrib.drt.routing.DrtRouteUpdater, annotation=@org.matsim.contrib.dvrp.run.DvrpMode(value=drt)]}
2026-06-18T12:17:33,541  INFO Injector:96 
2026-06-18T12:17:33,541  INFO Injector:85 org.matsim.contrib.drt.fare.DrtFareHandler @org.matsim.contrib.dvrp.run.DvrpMode(value=drt)
2026-06-18T12:17:33,542  INFO Injector:86   --> provider: ConstantFactory{value=org.matsim.contrib.drt.fare.DrtFareHandler@4c58255}[Scopes.SINGLETON]
2026-06-18T12:17:33,542  INFO Injector:87   --> source: org.matsim.core.modal.AbstractModalModule.bindModal(AbstractModalModule.java:59)
2026-06-18T12:17:33,542  INFO Injector:89   --> scope: eager singleton
2026-06-18T12:17:33,542  INFO Injector:94   ==full==> InstanceBinding{key=Key[type=org.matsim.contrib.drt.fare.DrtFareHandler, annotation=@org.matsim.contrib.dvrp.run.DvrpMode(value=drt)], source=org.matsim.core.modal.AbstractModalModule.bindModal(AbstractModalModule.java:59), instance=org.matsim.contrib.drt.fare.DrtFareHandler@4c58255}
2026-06-18T12:17:33,543  INFO Injector:96 
2026-06-18T12:17:33,543  INFO Injector:85 org.matsim.core.events.handler.EventHandler @com.google.inject.internal.Element(setName=,uniqueId=176, type=MULTIBINDER, keyType=)
2026-06-18T12:17:33,543  INFO Injector:86   --> provider: FactoryProxy{key=Key[type=org.matsim.core.events.handler.EventHandler, annotation=@com.google.inject.internal.Element(setName=,uniqueId=176, type=MULTIBINDER, keyType=)], provider=ConstantFactory{value=org.matsim.contrib.drt.fare.DrtFareHandler@4c58255}[Scopes.SINGLETON]}
2026-06-18T12:17:33,544  INFO Injector:87   --> source: org.matsim.contrib.drt.run.DrtModeModule.install(DrtModeModule.java:74)
2026-06-18T12:17:33,544  INFO Injector:89   --> scope: Scopes.NO_SCOPE
2026-06-18T12:17:33,545  INFO Injector:92   --> target: Key[type=org.matsim.contrib.drt.fare.DrtFareHandler, annotation=@org.matsim.contrib.dvrp.run.DvrpMode(value=drt)]
2026-06-18T12:17:33,545  INFO Injector:94   ==full==> LinkedKeyBinding{key=Key[type=org.matsim.core.events.handler.EventHandler, annotation=@com.google.inject.internal.Element(setName=,uniqueId=176, type=MULTIBINDER, keyType=)], source=org.matsim.contrib.drt.run.DrtModeModule.install(DrtModeModule.java:74), scope=Scopes.NO_SCOPE, target=Key[type=org.matsim.contrib.drt.fare.DrtFareHandler, annotation=@org.matsim.contrib.dvrp.run.DvrpMode(value=drt)]}
2026-06-18T12:17:33,545  INFO Injector:96 
2026-06-18T12:17:33,545  INFO Injector:85 org.matsim.contrib.drt.schedule.StopDurationEstimator @org.matsim.contrib.dvrp.run.DvrpMode(value=drt)
2026-06-18T12:17:33,546  INFO Injector:86   --> provider: ConstantFactory{value=org.matsim.contrib.drt.run.DrtModeModule$$Lambda/0x0000000037362d48@3252747e}[Scopes.SINGLETON]
2026-06-18T12:17:33,547  INFO Injector:87   --> source: org.matsim.core.modal.AbstractModalModule.bindModal(AbstractModalModule.java:59)
2026-06-18T12:17:33,547  INFO Injector:89   --> scope: eager singleton
2026-06-18T12:17:33,548  INFO Injector:94   ==full==> InstanceBinding{key=Key[type=org.matsim.contrib.drt.schedule.StopDurationEstimator, annotation=@org.matsim.contrib.dvrp.run.DvrpMode(value=drt)], source=org.matsim.core.modal.AbstractModalModule.bindModal(AbstractModalModule.java:59), instance=org.matsim.contrib.drt.run.DrtModeModule$$Lambda/0x0000000037362d48@3252747e}
2026-06-18T12:17:33,548  INFO Injector:96 
2026-06-18T12:17:33,548  INFO Injector:85 org.matsim.contrib.drt.optimizer.insertion.IncrementalStopDurationEstimator @org.matsim.contrib.dvrp.run.DvrpMode(value=drt)
2026-06-18T12:17:33,549  INFO Injector:86   --> provider: ConstantFactory{value=org.matsim.contrib.drt.optimizer.insertion.DefaultIncrementalStopDurationEstimator@2b4b96a4}[Scopes.SINGLETON]
2026-06-18T12:17:33,549  INFO Injector:87   --> source: org.matsim.core.modal.AbstractModalModule.bindModal(AbstractModalModule.java:59)
2026-06-18T12:17:33,550  INFO Injector:89   --> scope: eager singleton
2026-06-18T12:17:33,550  INFO Injector:94   ==full==> InstanceBinding{key=Key[type=org.matsim.contrib.drt.optimizer.insertion.IncrementalStopDurationEstimator, annotation=@org.matsim.contrib.dvrp.run.DvrpMode(value=drt)], source=org.matsim.core.modal.AbstractModalModule.bindModal(AbstractModalModule.java:59), instance=org.matsim.contrib.drt.optimizer.insertion.DefaultIncrementalStopDurationEstimator@2b4b96a4}
2026-06-18T12:17:33,550  INFO Injector:96 
[...]
2026-06-18T12:17:43,995  INFO QSim:566 SIMULATION (NEW QSim) AT 06:00:00 : #Veh=4923 lost=0 simT=21600.0s realT=7s; (s/r): 3085.714285714286
2026-06-18T12:17:46,012  INFO EventsManagerImpl:115  event # 65536
2026-06-18T12:17:47,337  INFO AbstractQNetsimEngine:366 SIMULATION (QNetsimEngine) AT 07:00:00 : #links=101 #nodes=23
2026-06-18T12:17:47,345  INFO QSim:566 SIMULATION (NEW QSim) AT 07:00:00 : #Veh=4923 lost=0 simT=25200.0s realT=10s; (s/r): 2520.0
2026-06-18T12:17:51,901  INFO AbstractQNetsimEngine:366 SIMULATION (QNetsimEngine) AT 08:00:00 : #links=120 #nodes=21
2026-06-18T12:17:51,932  INFO QSim:566 SIMULATION (NEW QSim) AT 08:00:00 : #Veh=4923 lost=0 simT=28800.0s realT=15s; (s/r): 1920.0
2026-06-18T12:17:53,252  INFO EventsManagerImpl:115  event # 262144
2026-06-18T12:17:54,994  INFO AbstractQNetsimEngine:366 SIMULATION (QNetsimEngine) AT 09:00:00 : #links=51 #nodes=6
2026-06-18T12:17:55,010  INFO QSim:566 SIMULATION (NEW QSim) AT 09:00:00 : #Veh=4923 lost=0 simT=32400.0s realT=18s; (s/r): 1800.0
2026-06-18T12:17:56,250  INFO AbstractQNetsimEngine:366 SIMULATION (QNetsimEngine) AT 10:00:00 : #links=21 #nodes=3
2026-06-18T12:17:56,268  INFO QSim:566 SIMULATION (NEW QSim) AT 10:00:00 : #Veh=4913 lost=0 simT=36000.0s realT=19s; (s/r): 1894.7368421052631
2026-06-18T12:17:57,520  INFO AbstractQNetsimEngine:366 SIMULATION (QNetsimEngine) AT 11:00:00 : #links=33 #nodes=6
2026-06-18T12:17:57,521  INFO QSim:566 SIMULATION (NEW QSim) AT 11:00:00 : #Veh=4853 lost=0 simT=39600.0s realT=20s; (s/r): 1980.0
2026-06-18T12:17:58,841  INFO AbstractQNetsimEngine:366 SIMULATION (QNetsimEngine) AT 12:00:00 : #links=23 #nodes=4
2026-06-18T12:17:58,871  INFO QSim:566 SIMULATION (NEW QSim) AT 12:00:00 : #Veh=4712 lost=0 simT=43200.0s realT=21s; (s/r): 2057.1428571428573
2026-06-18T12:17:59,940  INFO AbstractQNetsimEngine:366 SIMULATION (QNetsimEngine) AT 13:00:00 : #links=16 #nodes=0
2026-06-18T12:17:59,947  INFO QSim:566 SIMULATION (NEW QSim) AT 13:00:00 : #Veh=4561 lost=0 simT=46800.0s realT=23s; (s/r): 2034.7826086956522
2026-06-18T12:18:01,021  INFO AbstractQNetsimEngine:366 SIMULATION (QNetsimEngine) AT 14:00:00 : #links=21 #nodes=3
2026-06-18T12:18:01,030  INFO QSim:566 SIMULATION (NEW QSim) AT 14:00:00 : #Veh=4337 lost=0 simT=50400.0s realT=24s; (s/r): 2100.0
2026-06-18T12:18:03,550  INFO AbstractQNetsimEngine:366 SIMULATION (QNetsimEngine) AT 15:00:00 : #links=69 #nodes=11
2026-06-18T12:18:03,582  INFO QSim:566 SIMULATION (NEW QSim) AT 15:00:00 : #Veh=3972 lost=0 simT=54000.0s realT=26s; (s/r): 2076.923076923077
2026-06-18T12:18:07,685  INFO AbstractQNetsimEngine:366 SIMULATION (QNetsimEngine) AT 16:00:00 : #links=103 #nodes=19
2026-06-18T12:18:07,732  INFO QSim:566 SIMULATION (NEW QSim) AT 16:00:00 : #Veh=2987 lost=0 simT=57600.0s realT=30s; (s/r): 1920.0
2026-06-18T12:18:11,329  INFO AbstractQNetsimEngine:366 SIMULATION (QNetsimEngine) AT 17:00:00 : #links=69 #nodes=16
2026-06-18T12:18:11,403  INFO QSim:566 SIMULATION (NEW QSim) AT 17:00:00 : #Veh=1833 lost=0 simT=61200.0s realT=34s; (s/r): 1800.0
2026-06-18T12:18:13,161  INFO AbstractQNetsimEngine:366 SIMULATION (QNetsimEngine) AT 18:00:00 : #links=33 #nodes=6
2026-06-18T12:18:13,193  INFO QSim:566 SIMULATION (NEW QSim) AT 18:00:00 : #Veh=1130 lost=0 simT=64800.0s realT=36s; (s/r): 1800.0
2026-06-18T12:18:14,316  INFO AbstractQNetsimEngine:366 SIMULATION (QNetsimEngine) AT 19:00:00 : #links=23 #nodes=2
2026-06-18T12:18:14,361  INFO QSim:566 SIMULATION (NEW QSim) AT 19:00:00 : #Veh=804 lost=0 simT=68400.0s realT=37s; (s/r): 1848.6486486486488
2026-06-18T12:18:15,263  INFO AbstractQNetsimEngine:366 SIMULATION (QNetsimEngine) AT 20:00:00 : #links=11 #nodes=3
2026-06-18T12:18:15,295  INFO QSim:566 SIMULATION (NEW QSim) AT 20:00:00 : #Veh=598 lost=0 simT=72000.0s realT=38s; (s/r): 1894.7368421052631
2026-06-18T12:18:15,869  INFO AbstractQNetsimEngine:366 SIMULATION (QNetsimEngine) AT 21:00:00 : #links=8 #nodes=0
2026-06-18T12:18:15,900  INFO QSim:566 SIMULATION (NEW QSim) AT 21:00:00 : #Veh=486 lost=0 simT=75600.0s realT=39s; (s/r): 1938.4615384615386
2026-06-18T12:18:16,253  INFO AbstractQNetsimEngine:366 SIMULATION (QNetsimEngine) AT 22:00:00 : #links=2 #nodes=2
2026-06-18T12:18:16,284  INFO QSim:566 SIMULATION (NEW QSim) AT 22:00:00 : #Veh=417 lost=0 simT=79200.0s realT=39s; (s/r): 2030.7692307692307
2026-06-18T12:18:16,598  INFO AbstractQNetsimEngine:366 SIMULATION (QNetsimEngine) AT 23:00:00 : #links=0 #nodes=0
2026-06-18T12:18:16,630  INFO QSim:566 SIMULATION (NEW QSim) AT 23:00:00 : #Veh=400 lost=0 simT=82800.0s realT=39s; (s/r): 2123.076923076923
2026-06-18T12:18:16,877  INFO AbstractQNetsimEngine:366 SIMULATION (QNetsimEngine) AT 24:00:00 : #links=0 #nodes=0
2026-06-18T12:18:16,916  INFO QSim:566 SIMULATION (NEW QSim) AT 24:00:00 : #Veh=0 lost=0 simT=86400.0s realT=40s; (s/r): 2160.0
2026-06-18T12:18:17,014  INFO AbstractController$9:235 ### ITERATION 0 fires after mobsim event
2026-06-18T12:18:17,015  INFO Gbl:192 Thread performance: Thread=class org.matsim.core.events.SimStepParallelEventsManagerImpl$ProcessEventsRunnable0  cpu-time=8.140625sec
2026-06-18T12:18:17,047  INFO ControlerListenerManagerImpl:249 calling notifyAfterMobsim on org.matsim.analysis.LegTimesControlerListener
2026-06-18T12:18:17,054  INFO LegTimesControlerListener:51 [0] average trip (probably: leg) duration is: 420 seconds = 00:07:00
2026-06-18T12:18:17,055  INFO ControlerListenerManagerImpl:249 calling notifyAfterMobsim on org.matsim.core.events.MobsimScopeEventHandling
2026-06-18T12:18:17,055  INFO EventsManagerImpl:159 removing Event-Handler: org.matsim.contrib.dvrp.passenger.DefaultPassengerEngine
2026-06-18T12:18:17,056  INFO EventsManagerImpl:159 removing Event-Handler: org.matsim.contrib.dvrp.passenger.DefaultPassengerEngine
2026-06-18T12:18:17,057  INFO ControlerListenerManagerImpl:249 calling notifyAfterMobsim on org.matsim.contrib.dvrp.trafficmonitoring.DvrpOfflineTravelTimeEstimator
2026-06-18T12:18:17,222  INFO ControlerListenerManagerImpl:249 calling notifyAfterMobsim on org.matsim.core.scoring.EventsToActivities$1
2026-06-18T12:18:17,267  INFO ControlerListenerManagerImpl:252 [it.0] all ControlerAfterMobsimListeners called.
2026-06-18T12:18:17,268  INFO AbstractController$4:160 ### ITERATION 0 fires scoring event
2026-06-18T12:18:17,269  INFO ControlerListenerManagerImpl:184 calling notifyScoring on org.matsim.core.scoring.PlansScoringImpl
2026-06-18T12:18:17,279  INFO NewScoreAssignerImpl:58 it: 0 msaStart: null
2026-06-18T12:18:17,286  INFO ControlerListenerManagerImpl:195 [it.0] all ControlerScoringListeners called.
2026-06-18T12:18:17,288  INFO AbstractController$5:168 ### ITERATION 0 fires iteration end event
2026-06-18T12:18:17,288  INFO ControlerListenerManagerImpl:161 calling notifyIterationEnds on org.matsim.core.controler.corelisteners.EventsHandlingImpl
2026-06-18T12:18:17,290  INFO EventsManagerImpl:159 removing Event-Handler: org.matsim.core.events.algorithms.EventWriterXML
2026-06-18T12:18:17,290  INFO EventsManagerImpl:159 removing Event-Handler: org.matsim.core.events.algorithms.EventWriterXML
2026-06-18T12:18:17,291  INFO ControlerListenerManagerImpl:161 calling notifyIterationEnds on org.matsim.core.scoring.PlansScoringImpl
2026-06-18T12:18:17,294  INFO ControlerListenerManagerImpl:168 calling notifyIterationEnds on org.matsim.counts.CountsControlerListener
2026-06-18T12:18:17,294  INFO ControlerListenerManagerImpl:168 calling notifyIterationEnds on org.matsim.analysis.ModeStatsControlerListener
2026-06-18T12:18:17,308  INFO ModeStatsControlerListener:145 Mode shares over all 10014.0 trips found. MainModeIdentifier: class org.matsim.core.router.RoutingModeMainModeIdentifier
2026-06-18T12:18:17,309  INFO ModeStatsControlerListener:152 -- mode share of mode drt = 1.0
2026-06-18T12:18:17,311  INFO ControlerListenerManagerImpl:168 calling notifyIterationEnds on org.matsim.analysis.ScoreStatsControlerListener
2026-06-18T12:18:17,318  INFO ScoreStatsControlerListener:149 -- avg. score of the executed plan of each agent: 89.39155245555831
2026-06-18T12:18:17,319  INFO ScoreStatsControlerListener:150 -- avg. score of the worst plan of each agent: 89.39155245555831
2026-06-18T12:18:17,320  INFO ScoreStatsControlerListener:151 -- avg. of the avg. plan score per agent: 89.39155245555831
2026-06-18T12:18:17,321  INFO ScoreStatsControlerListener:152 -- avg. score of the best plan of each agent: 89.39155245555831
2026-06-18T12:18:17,325  INFO ControlerListenerManagerImpl:168 calling notifyIterationEnds on org.matsim.analysis.IterationTravelStatsControlerListener
2026-06-18T12:18:17,379  INFO TravelDistanceStats:144 -- average leg distance per plan (executed plans only): 2914.900182940399 meters
2026-06-18T12:18:17,413  INFO TravelDistanceStats:145 average leg distance per Person (executed plans only): 19342.87289205685 meters (statistic on all 30014 legs which have a finite distance)
2026-06-18T12:18:17,414  INFO TravelDistanceStats:146 -- average trip distance per plan (executed plans only): 8736.550238743073 meters
2026-06-18T12:18:17,415  INFO TravelDistanceStats:147 average trip distance per Person (executed plans only): 19342.87289205685 meters (statistic on all 10014 trips which have a finite distance)
2026-06-18T12:18:17,416  INFO TravelDistanceStats:148 (TravelDistanceStats takes an average over all legs where the simulation reports travelled (network) distances
2026-06-18T12:18:17,418  INFO TravelDistanceStats:149 (and teleported legs whose route contains a distance.)
2026-06-18T12:18:19,919  INFO ControlerListenerManagerImpl:168 calling notifyIterationEnds on org.matsim.analysis.LegHistogramListener
2026-06-18T12:18:19,958  INFO LegHistogramListener:73 number of legs:	30014	100%
2026-06-18T12:18:19,962  INFO LegHistogramListener:80 number of drt legs:	10000	33.317785033650964%
2026-06-18T12:18:19,963  INFO LegHistogramListener:80 number of walk legs:	20014	66.68221496634904%
2026-06-18T12:18:20,455  INFO ControlerListenerManagerImpl:168 calling notifyIterationEnds on org.matsim.analysis.LinkStatsControlerListener
2026-06-18T12:18:20,456  INFO ControlerListenerManagerImpl:168 calling notifyIterationEnds on org.matsim.contrib.drt.analysis.DrtAnalysisControlerListener
2026-06-18T12:18:23,832  INFO ControlerListenerManagerImpl:168 calling notifyIterationEnds on org.matsim.contrib.common.timeprofile.ProfileWriter
2026-06-18T12:18:24,424  INFO ControlerListenerManagerImpl:168 calling notifyIterationEnds on org.matsim.contrib.common.timeprofile.ProfileWriter
2026-06-18T12:18:24,865  INFO ControlerListenerManagerImpl:168 calling notifyIterationEnds on org.matsim.contrib.drt.analysis.zonal.DrtZonalWaitTimesAnalyzer
2026-06-18T12:18:24,890  INFO ControlerListenerManagerImpl:168 calling notifyIterationEnds on org.matsim.contrib.drt.analysis.zonal.ZonalIdleVehicleXYVisualiser
2026-06-18T12:18:24,908  INFO ControlerListenerManagerImpl:172 [it.0] all ControlerIterationEndsListeners called.
2026-06-18T12:18:25,027  INFO AbstractController:182 ### ITERATION 0 ENDS
2026-06-18T12:18:25,059  INFO AbstractController:183 ###################################################
2026-06-18T12:18:25,059  INFO MatsimRuntimeModifications:80 S H U T D O W N   ---   start shutdown.
2026-06-18T12:18:25,061  INFO ControlerListenerManagerImpl:122 calling notifyShutdown on org.matsim.core.controler.corelisteners.EventsHandlingImpl
2026-06-18T12:18:25,061  INFO ControlerListenerManagerImpl:122 calling notifyShutdown on org.matsim.core.controler.corelisteners.DumpDataAtEndImpl
2026-06-18T12:18:25,067  INFO Counter:70 [PopulationWriter] dumped person # 1
2026-06-18T12:18:25,067  INFO Counter:70 [PopulationWriter] dumped person # 2
2026-06-18T12:18:25,068  INFO Counter:70 [PopulationWriter] dumped person # 4
2026-06-18T12:18:25,069  INFO Counter:70 [PopulationWriter] dumped person # 8
2026-06-18T12:18:25,070  INFO Counter:70 [PopulationWriter] dumped person # 16
2026-06-18T12:18:25,072  INFO Counter:70 [PopulationWriter] dumped person # 32
2026-06-18T12:18:25,076  INFO Counter:70 [PopulationWriter] dumped person # 64
2026-06-18T12:18:25,085  INFO Counter:70 [PopulationWriter] dumped person # 128
2026-06-18T12:18:25,103  INFO Counter:70 [PopulationWriter] dumped person # 256
2026-06-18T12:18:25,136  INFO Counter:70 [PopulationWriter] dumped person # 512
2026-06-18T12:18:25,205  INFO Counter:70 [PopulationWriter] dumped person # 1024
2026-06-18T12:18:25,367  INFO Counter:70 [PopulationWriter] dumped person # 2048
2026-06-18T12:18:25,608  INFO Counter:70 [PopulationWriter] dumped person # 4096
2026-06-18T12:18:25,687  INFO PopulationWriter:145 Population written to: output/S4/output_plans.xml.gz
2026-06-18T12:18:25,688  INFO Counter:75 [PopulationWriter] dumped person # 4523
2026-06-18T12:18:25,690  INFO NetworkWriter:70 Writing network to file: output/S4/output_network.xml.gz...
2026-06-18T12:18:25,895  INFO NetworkWriter:73 done.
2026-06-18T12:18:25,945  INFO Config:551 setting context to [file:/D:/Study/TUB/So2026/ITS/GroupAssignment/ITS-Homework2/Assignment_2/Task3-Cottbus/]
2026-06-18T12:18:25,949  INFO Config:551 setting context to [file:/D:/Study/TUB/So2026/ITS/GroupAssignment/ITS-Homework2/Assignment_2/Task3-Cottbus/]
2026-06-18T12:18:25,953  INFO Config:551 setting context to [file:/D:/Study/TUB/So2026/ITS/GroupAssignment/ITS-Homework2/Assignment_2/Task3-Cottbus/]
2026-06-18T12:18:25,955  INFO Config:551 setting context to [file:/D:/Study/TUB/So2026/ITS/GroupAssignment/ITS-Homework2/Assignment_2/Task3-Cottbus/]
2026-06-18T12:18:25,958  INFO Config:551 setting context to [file:/D:/Study/TUB/So2026/ITS/GroupAssignment/ITS-Homework2/Assignment_2/Task3-Cottbus/]
2026-06-18T12:18:25,961  INFO Config:551 setting context to [file:/D:/Study/TUB/So2026/ITS/GroupAssignment/ITS-Homework2/Assignment_2/Task3-Cottbus/]
2026-06-18T12:18:25,964  INFO Config:551 setting context to [file:/D:/Study/TUB/So2026/ITS/GroupAssignment/ITS-Homework2/Assignment_2/Task3-Cottbus/]
2026-06-18T12:18:25,969  INFO Config:551 setting context to [file:/D:/Study/TUB/So2026/ITS/GroupAssignment/ITS-Homework2/Assignment_2/Task3-Cottbus/]
2026-06-18T12:18:25,972  INFO Config:551 setting context to [file:/D:/Study/TUB/So2026/ITS/GroupAssignment/ITS-Homework2/Assignment_2/Task3-Cottbus/]
2026-06-18T12:18:25,974  INFO Config:551 setting context to [file:/D:/Study/TUB/So2026/ITS/GroupAssignment/ITS-Homework2/Assignment_2/Task3-Cottbus/]
2026-06-18T12:18:25,977  INFO Config:551 setting context to [file:/D:/Study/TUB/So2026/ITS/GroupAssignment/ITS-Homework2/Assignment_2/Task3-Cottbus/]
2026-06-18T12:18:25,979  INFO Config:551 setting context to [file:/D:/Study/TUB/So2026/ITS/GroupAssignment/ITS-Homework2/Assignment_2/Task3-Cottbus/]
2026-06-18T12:18:25,981  INFO Config:551 setting context to [file:/D:/Study/TUB/So2026/ITS/GroupAssignment/ITS-Homework2/Assignment_2/Task3-Cottbus/]
2026-06-18T12:18:25,987  INFO Config:551 setting context to [file:/D:/Study/TUB/So2026/ITS/GroupAssignment/ITS-Homework2/Assignment_2/Task3-Cottbus/]
2026-06-18T12:18:25,989  INFO Config:551 setting context to [file:/D:/Study/TUB/So2026/ITS/GroupAssignment/ITS-Homework2/Assignment_2/Task3-Cottbus/]
2026-06-18T12:18:25,991  INFO Config:551 setting context to [file:/D:/Study/TUB/So2026/ITS/GroupAssignment/ITS-Homework2/Assignment_2/Task3-Cottbus/]
2026-06-18T12:18:25,993  INFO Config:551 setting context to [file:/D:/Study/TUB/So2026/ITS/GroupAssignment/ITS-Homework2/Assignment_2/Task3-Cottbus/]
2026-06-18T12:18:25,996  INFO Config:551 setting context to [file:/D:/Study/TUB/So2026/ITS/GroupAssignment/ITS-Homework2/Assignment_2/Task3-Cottbus/]
2026-06-18T12:18:26,004  INFO Config:551 setting context to [file:/D:/Study/TUB/So2026/ITS/GroupAssignment/ITS-Homework2/Assignment_2/Task3-Cottbus/]
2026-06-18T12:18:26,007  INFO Config:551 setting context to [file:/D:/Study/TUB/So2026/ITS/GroupAssignment/ITS-Homework2/Assignment_2/Task3-Cottbus/]
2026-06-18T12:18:26,011  INFO Config:551 setting context to [file:/D:/Study/TUB/So2026/ITS/GroupAssignment/ITS-Homework2/Assignment_2/Task3-Cottbus/]
2026-06-18T12:18:26,013  INFO Config:551 setting context to [file:/D:/Study/TUB/So2026/ITS/GroupAssignment/ITS-Homework2/Assignment_2/Task3-Cottbus/]
2026-06-18T12:18:26,019  INFO Config:551 setting context to [file:/D:/Study/TUB/So2026/ITS/GroupAssignment/ITS-Homework2/Assignment_2/Task3-Cottbus/]
2026-06-18T12:18:26,020  INFO Config:551 setting context to [file:/D:/Study/TUB/So2026/ITS/GroupAssignment/ITS-Homework2/Assignment_2/Task3-Cottbus/]
2026-06-18T12:18:26,024  INFO Config:551 setting context to [file:/D:/Study/TUB/So2026/ITS/GroupAssignment/ITS-Homework2/Assignment_2/Task3-Cottbus/]
2026-06-18T12:18:26,026  INFO Config:551 setting context to [file:/D:/Study/TUB/So2026/ITS/GroupAssignment/ITS-Homework2/Assignment_2/Task3-Cottbus/]
2026-06-18T12:18:26,028  INFO Config:551 setting context to [file:/D:/Study/TUB/So2026/ITS/GroupAssignment/ITS-Homework2/Assignment_2/Task3-Cottbus/]
2026-06-18T12:18:26,034  INFO Config:551 setting context to [file:/D:/Study/TUB/So2026/ITS/GroupAssignment/ITS-Homework2/Assignment_2/Task3-Cottbus/]
2026-06-18T12:18:26,037  INFO Config:551 setting context to [file:/D:/Study/TUB/So2026/ITS/GroupAssignment/ITS-Homework2/Assignment_2/Task3-Cottbus/]
2026-06-18T12:18:26,040  INFO Config:551 setting context to [file:/D:/Study/TUB/So2026/ITS/GroupAssignment/ITS-Homework2/Assignment_2/Task3-Cottbus/]
2026-06-18T12:18:26,048  INFO MatsimVehicleWriter:55 about to write vehicles to: output/S4/output_vehicles.xml.gz
2026-06-18T12:18:26,049  INFO VehicleWriterV2:64 about to write vehicles to: output/S4/output_vehicles.xml.gz
2026-06-18T12:18:26,068  INFO MatsimVehicleWriter:55 about to write vehicles to: output/S4/output_allVehicles.xml.gz
2026-06-18T12:18:26,068  INFO VehicleWriterV2:64 about to write vehicles to: output/S4/output_allVehicles.xml.gz
2026-06-18T12:18:26,072  INFO HouseholdsWriterV10:67 about to write  households to: output/S4/output_households.xml.gz
2026-06-18T12:18:26,074  INFO Counter:75 [HouseholdsWriter] wrote household # 0
2026-06-18T12:18:26,105  INFO ControlerListenerManagerImpl:127 calling notifyShutdown on org.matsim.analysis.ScoreStatsControlerListener
2026-06-18T12:18:26,108  INFO ControlerListenerManagerImpl:127 calling notifyShutdown on org.matsim.analysis.IterationTravelStatsControlerListener
2026-06-18T12:18:26,109  INFO IterationTravelStatsControlerListener:115 Writing all Person and Attributes to personscsv
2026-06-18T12:18:26,175  INFO IterationTravelStatsControlerListener:159 ...done
2026-06-18T12:18:26,178  INFO ControlerListenerManagerImpl:127 calling notifyShutdown on org.matsim.analysis.LinkStatsControlerListener
2026-06-18T12:18:26,419  INFO ControlerListenerManagerImpl:127 calling notifyShutdown on org.matsim.contrib.drt.analysis.DrtAnalysisControlerListener
2026-06-18T12:18:26,526  INFO ControlerListenerManagerImpl:127 calling notifyShutdown on org.matsim.contrib.drt.routing.DefaultDrtRouteUpdater
2026-06-18T12:18:26,528  INFO ControlerListenerManagerImpl:127 calling notifyShutdown on org.matsim.contrib.drt.analysis.zonal.DrtZonalWaitTimesAnalyzer
2026-06-18T12:18:27,707  INFO ShapeFileWriter:51 Writing shapefile to output/S4/drt_waitStats_drt_zonal.shp
2026-06-18T12:18:28,365  INFO ControlerListenerManagerImpl:127 calling notifyShutdown on org.matsim.contrib.dvrp.fleet.FleetControlerListener
2026-06-18T12:18:28,405  INFO ControlerListenerManagerImpl:130 all ControlerShutdownListeners called.
2026-06-18T12:18:28,406  INFO MatsimRuntimeModifications:103 S H U T D O W N   ---   shutdown completed.
2026-06-18T12:18:28,406  INFO OutputDirectoryLogging:171 closing the logfile, i.e. messages sent to the logger after this message are not written to the logfile.
2026-06-18T12:18:28,408  INFO OutputDirectoryLogging:171 closing the logfile, i.e. messages sent to the logger after this message are not written to the logfile.
