2026-06-18T12:18:30,686  INFO IOUtils:213 Resolved D:\Study\TUB\So2026\ITS\GroupAssignment\ITS-Homework2\Assignment_2\Task3-Cottbus\config_S5.xml to D:\Study\TUB\So2026\ITS\GroupAssignment\ITS-Homework2\Assignment_2\Task3-Cottbus\config_S5.xml
2026-06-18T12:18:30,699  INFO Config:551 setting context to [file:/D:/Study/TUB/So2026/ITS/GroupAssignment/ITS-Homework2/Assignment_2/Task3-Cottbus/]
2026-06-18T12:18:30,815  INFO Version:21 HV000001: Hibernate Validator master-SNAPSHOT
2026-06-18T12:18:31,067  INFO MatsimXmlParser:165 starting to parse xml from url file:/D:/Study/TUB/So2026/ITS/GroupAssignment/ITS-Homework2/Assignment_2/Task3-Cottbus/config_S5.xml ...
2026-06-18T12:18:31,144  INFO ConfigReader:103 using config_v2-reader
2026-06-18T12:18:31,149  INFO MatsimXmlParser:281 Trying to load http://www.matsim.org/files/dtd/config_v2.dtd. In some cases (e.g. network interface up but no connection), this may take a bit.
2026-06-18T12:18:31,326  INFO Config:551 setting context to [file:/D:/Study/TUB/So2026/ITS/GroupAssignment/ITS-Homework2/Assignment_2/Task3-Cottbus/config_S5.xml]
2026-06-18T12:18:31,359  INFO ScenarioLoaderImpl:135 loading network from file:/D:/Study/TUB/So2026/ITS/GroupAssignment/ITS-Homework2/Assignment_2/Task3-Cottbus/network.xml.gz
2026-06-18T12:18:31,409  INFO MatsimXmlParser:165 starting to parse xml from url file:/D:/Study/TUB/So2026/ITS/GroupAssignment/ITS-Homework2/Assignment_2/Task3-Cottbus/network.xml.gz ...
2026-06-18T12:18:31,414  INFO MatsimNetworkReader:116 using network_v1-reader.
2026-06-18T12:18:31,415  INFO MatsimXmlParser:281 Trying to load http://www.matsim.org/files/dtd/network_v1.dtd. In some cases (e.g. network interface up but no connection), this may take a bit.
2026-06-18T12:18:31,457  INFO NetworkImpl:165  node # 1
2026-06-18T12:18:31,619  INFO NetworkImpl:165  node # 4
2026-06-18T12:18:31,683  INFO NetworkImpl:165  node # 16
2026-06-18T12:18:31,752  INFO NetworkImpl:165  node # 64
2026-06-18T12:18:31,765  INFO NetworkImpl:165  node # 256
2026-06-18T12:18:31,786  INFO NetworkImpl:165  node # 1024
2026-06-18T12:18:31,837  INFO NetworkImpl:165  node # 4096
2026-06-18T12:18:31,878  INFO NetworkImpl:161  link # 1
2026-06-18T12:18:31,881  INFO NetworkImpl:161  link # 4
2026-06-18T12:18:31,885  INFO NetworkImpl:161  link # 16
2026-06-18T12:18:31,893  INFO NetworkImpl:161  link # 64
2026-06-18T12:18:31,906  INFO NetworkImpl:161  link # 256
2026-06-18T12:18:31,931  INFO NetworkImpl:161  link # 1024
2026-06-18T12:18:32,010  INFO NetworkImpl:161  link # 4096
2026-06-18T12:18:32,185  INFO ScenarioLoaderImpl:172 no facilities file set in config, therefore not loading any facilities.  This is not a problem except if you are using facilities
2026-06-18T12:18:32,216  INFO ScenarioLoaderImpl:188 no facility-attributes file set in config, not loading any facility attributes
2026-06-18T12:18:32,218  INFO ScenarioLoaderImpl:196 loading population from file:/D:/Study/TUB/So2026/ITS/GroupAssignment/ITS-Homework2/Assignment_2/Task3-Cottbus/plans.xml
2026-06-18T12:18:32,223  INFO MatsimXmlParser:165 starting to parse xml from url file:/D:/Study/TUB/So2026/ITS/GroupAssignment/ITS-Homework2/Assignment_2/Task3-Cottbus/plans.xml ...
2026-06-18T12:18:32,384  INFO PopulationReader:124 using population_v6-reader.
2026-06-18T12:18:32,416  INFO MatsimXmlParser:281 Trying to load http://www.matsim.org/files/dtd/population_v6.dtd. In some cases (e.g. network interface up but no connection), this may take a bit.
2026-06-18T12:18:32,522  INFO PopulationImpl:107  person # 1
2026-06-18T12:18:32,553  INFO PopulationImpl:107  person # 4
2026-06-18T12:18:32,561  INFO PopulationImpl:107  person # 16
2026-06-18T12:18:32,575  INFO PopulationImpl:107  person # 64
2026-06-18T12:18:32,605  INFO PopulationImpl:107  person # 256
2026-06-18T12:18:32,673  INFO PopulationImpl:107  person # 1024
2026-06-18T12:18:32,873  INFO PopulationImpl:107  person # 4096
2026-06-18T12:18:32,916  INFO PopulationUtils:1078  person # 4523
2026-06-18T12:18:32,920  INFO ScenarioLoaderImpl:244 no person-attributes file set in config, not loading any person attributes
2026-06-18T12:18:32,922  INFO ScenarioLoaderImpl:258 no households file set in config, not loading households
2026-06-18T12:18:32,922  INFO ScenarioLoaderImpl:276 no household-attributes file set in config, not loading any household attributes
2026-06-18T12:18:32,924  INFO ScenarioLoaderImpl:290 no transit schedule file set in config, not loading any transit schedule
2026-06-18T12:18:32,924  INFO ScenarioLoaderImpl:331 no transit vehicles file set in config, not loading any transit vehicles
2026-06-18T12:18:33,014  INFO VspConfigConsistencyCheckerImpl:61 NOT running vsp config consistency check because vsp defaults checking level is set to IGNORE
2026-06-18T12:18:34,795  INFO DvrpGlobalRoutingNetworkProvider:66 DVRP global routing network unfiltered: #nodes=4477 #links:10729
2026-06-18T12:18:34,832  INFO NetworkImpl:165  node # 1
2026-06-18T12:18:34,832  INFO NetworkImpl:165  node # 4
2026-06-18T12:18:34,834  INFO NetworkImpl:165  node # 16
2026-06-18T12:18:34,834  INFO NetworkImpl:165  node # 64
2026-06-18T12:18:34,836  INFO NetworkImpl:165  node # 256
2026-06-18T12:18:34,836  INFO NetworkImpl:165  node # 1024
2026-06-18T12:18:34,844  INFO NetworkImpl:165  node # 4096
2026-06-18T12:18:34,847  INFO NetworkImpl:161  link # 1
2026-06-18T12:18:34,849  INFO NetworkImpl:161  link # 4
2026-06-18T12:18:34,849  INFO NetworkImpl:161  link # 16
2026-06-18T12:18:34,853  INFO NetworkImpl:161  link # 64
2026-06-18T12:18:34,858  INFO NetworkImpl:161  link # 256
2026-06-18T12:18:34,864  INFO NetworkImpl:161  link # 1024
2026-06-18T12:18:34,889  INFO NetworkImpl:161  link # 4096
2026-06-18T12:18:34,922  INFO DvrpGlobalRoutingNetworkProvider:66 DVRP global routing network filtered: #nodes=4415 #links:10599
2026-06-18T12:18:34,929  INFO SimStepParallelEventsManagerImpl:80 number of threads=1
2026-06-18T12:18:34,939  INFO EventsManagerImpl:138 adding Event-Handler: org.matsim.core.trafficmonitoring.TravelTimeCalculator
2026-06-18T12:18:34,939  INFO EventsManagerImpl:144   org.matsim.api.core.v01.events.handler.LinkEnterEventHandler
2026-06-18T12:18:34,945  INFO EventsManagerImpl:205     > org.matsim.api.core.v01.events.LinkEnterEvent
2026-06-18T12:18:34,947  INFO EventsManagerImpl:144   org.matsim.api.core.v01.events.handler.LinkLeaveEventHandler
2026-06-18T12:18:34,949  INFO EventsManagerImpl:205     > org.matsim.api.core.v01.events.LinkLeaveEvent
2026-06-18T12:18:34,949  INFO EventsManagerImpl:144   org.matsim.api.core.v01.events.handler.VehicleEntersTrafficEventHandler
2026-06-18T12:18:34,949  INFO EventsManagerImpl:205     > org.matsim.api.core.v01.events.VehicleEntersTrafficEvent
2026-06-18T12:18:34,949  INFO EventsManagerImpl:144   org.matsim.api.core.v01.events.handler.VehicleLeavesTrafficEventHandler
2026-06-18T12:18:34,949  INFO EventsManagerImpl:205     > org.matsim.api.core.v01.events.VehicleLeavesTrafficEvent
2026-06-18T12:18:34,949  INFO EventsManagerImpl:144   org.matsim.core.api.experimental.events.handler.VehicleArrivesAtFacilityEventHandler
2026-06-18T12:18:34,951  INFO EventsManagerImpl:205     > org.matsim.core.api.experimental.events.VehicleArrivesAtFacilityEvent
2026-06-18T12:18:34,951  INFO EventsManagerImpl:144   org.matsim.api.core.v01.events.handler.VehicleAbortsEventHandler
2026-06-18T12:18:34,951  INFO EventsManagerImpl:205     > org.matsim.api.core.v01.events.VehicleAbortsEvent
2026-06-18T12:18:34,951  INFO EventsManagerImpl:154 
2026-06-18T12:18:34,954  INFO EventsManagerImpl:138 adding Event-Handler: org.matsim.core.trafficmonitoring.TravelTimeCalculator
2026-06-18T12:18:34,954  INFO EventsManagerImpl:144   org.matsim.api.core.v01.events.handler.LinkEnterEventHandler
2026-06-18T12:18:34,955  INFO EventsManagerImpl:205     > org.matsim.api.core.v01.events.LinkEnterEvent
2026-06-18T12:18:34,955  INFO EventsManagerImpl:144   org.matsim.api.core.v01.events.handler.LinkLeaveEventHandler
2026-06-18T12:18:34,955  INFO EventsManagerImpl:205     > org.matsim.api.core.v01.events.LinkLeaveEvent
2026-06-18T12:18:34,957  INFO EventsManagerImpl:144   org.matsim.api.core.v01.events.handler.VehicleEntersTrafficEventHandler
2026-06-18T12:18:34,958  INFO EventsManagerImpl:205     > org.matsim.api.core.v01.events.VehicleEntersTrafficEvent
2026-06-18T12:18:34,958  INFO EventsManagerImpl:144   org.matsim.api.core.v01.events.handler.VehicleLeavesTrafficEventHandler
2026-06-18T12:18:34,958  INFO EventsManagerImpl:205     > org.matsim.api.core.v01.events.VehicleLeavesTrafficEvent
2026-06-18T12:18:34,958  INFO EventsManagerImpl:144   org.matsim.core.api.experimental.events.handler.VehicleArrivesAtFacilityEventHandler
2026-06-18T12:18:34,958  INFO EventsManagerImpl:205     > org.matsim.core.api.experimental.events.VehicleArrivesAtFacilityEvent
2026-06-18T12:18:34,958  INFO EventsManagerImpl:144   org.matsim.api.core.v01.events.handler.VehicleAbortsEventHandler
2026-06-18T12:18:34,961  INFO EventsManagerImpl:205     > org.matsim.api.core.v01.events.VehicleAbortsEvent
2026-06-18T12:18:34,961  INFO EventsManagerImpl:154 
2026-06-18T12:18:34,995  INFO MatsimXmlParser:165 starting to parse xml from url file:/D:/Study/TUB/So2026/ITS/GroupAssignment/ITS-Homework2/Assignment_2/Task3-Cottbus/drt-vehicles/fleet-size-300.xml ...
2026-06-18T12:18:35,036  INFO MatsimXmlParser:281 Trying to load http://matsim.org/files/dtd/dvrp_vehicles_v1.dtd. In some cases (e.g. network interface up but no connection), this may take a bit.
2026-06-18T12:18:35,122  INFO DrtGridUtils:50 start creating grid from network
2026-06-18T12:18:35,228  INFO DrtGridUtils:72 finished creating grid from network
2026-06-18T12:18:35,474  INFO SpeedyALTData:51 find dead ends...
2026-06-18T12:18:35,512  INFO SpeedyALTData:132 calculate landmarks...
2026-06-18T12:18:35,618  INFO SpeedyALTData:173 calculate min travelcost...
2026-06-18T12:18:35,676  INFO StrategyManager:77 global innovation switch off after iteration: 0
2026-06-18T12:18:35,684  INFO GenericStrategyManagerImpl:330 added change request:  iteration=1 newWeight=0.0 strategy=RandomPlanSelector_TimeAllocationMutatorModule
2026-06-18T12:18:35,684  INFO GenericStrategyManagerImpl:362 setting PlanSelectorForRemoval to class org.matsim.core.replanning.selectors.WorstPlanForRemovalSelector
2026-06-18T12:18:35,686  INFO EventsManagerImpl:138 adding Event-Handler: org.matsim.core.scoring.ScoringFunctionsForPopulation
2026-06-18T12:18:35,686  INFO EventsManagerImpl:144   org.matsim.core.events.handler.BasicEventHandler
2026-06-18T12:18:35,686  INFO EventsManagerImpl:205     > org.matsim.api.core.v01.events.Event
2026-06-18T12:18:35,686  INFO EventsManagerImpl:154 
2026-06-18T12:18:35,686  INFO EventsManagerImpl:138 adding Event-Handler: org.matsim.core.scoring.ScoringFunctionsForPopulation
2026-06-18T12:18:35,692  INFO EventsManagerImpl:144   org.matsim.core.events.handler.BasicEventHandler
2026-06-18T12:18:35,692  INFO EventsManagerImpl:205     > org.matsim.api.core.v01.events.Event
2026-06-18T12:18:35,692  INFO EventsManagerImpl:154 
2026-06-18T12:18:35,696  INFO CalcLinkStats:151  resetting `count' to zero.  This info is here since we want to check when this is happening during normal simulation runs.  kai, jan'11
2026-06-18T12:18:35,737  INFO EventsManagerImpl:138 adding Event-Handler: org.matsim.analysis.VolumesAnalyzer
2026-06-18T12:18:35,769  INFO EventsManagerImpl:144   org.matsim.api.core.v01.events.handler.LinkLeaveEventHandler
2026-06-18T12:18:35,771  INFO EventsManagerImpl:205     > org.matsim.api.core.v01.events.LinkLeaveEvent
2026-06-18T12:18:35,771  INFO EventsManagerImpl:144   org.matsim.api.core.v01.events.handler.VehicleEntersTrafficEventHandler
2026-06-18T12:18:35,771  INFO EventsManagerImpl:205     > org.matsim.api.core.v01.events.VehicleEntersTrafficEvent
2026-06-18T12:18:35,771  INFO EventsManagerImpl:154 
2026-06-18T12:18:35,771  INFO EventsManagerImpl:138 adding Event-Handler: org.matsim.analysis.VolumesAnalyzer
2026-06-18T12:18:35,771  INFO EventsManagerImpl:144   org.matsim.api.core.v01.events.handler.LinkLeaveEventHandler
2026-06-18T12:18:35,771  INFO EventsManagerImpl:205     > org.matsim.api.core.v01.events.LinkLeaveEvent
2026-06-18T12:18:35,773  INFO EventsManagerImpl:144   org.matsim.api.core.v01.events.handler.VehicleEntersTrafficEventHandler
2026-06-18T12:18:35,773  INFO EventsManagerImpl:205     > org.matsim.api.core.v01.events.VehicleEntersTrafficEvent
2026-06-18T12:18:35,773  INFO EventsManagerImpl:154 
2026-06-18T12:18:35,775  INFO EventsManagerImpl:138 adding Event-Handler: org.matsim.analysis.LegHistogram
2026-06-18T12:18:35,775  INFO EventsManagerImpl:144   org.matsim.api.core.v01.events.handler.PersonDepartureEventHandler
2026-06-18T12:18:35,777  INFO EventsManagerImpl:205     > org.matsim.api.core.v01.events.PersonDepartureEvent
2026-06-18T12:18:35,777  INFO EventsManagerImpl:144   org.matsim.api.core.v01.events.handler.PersonArrivalEventHandler
2026-06-18T12:18:35,777  INFO EventsManagerImpl:205     > org.matsim.api.core.v01.events.PersonArrivalEvent
2026-06-18T12:18:35,777  INFO EventsManagerImpl:144   org.matsim.api.core.v01.events.handler.PersonStuckEventHandler
2026-06-18T12:18:35,777  INFO EventsManagerImpl:205     > org.matsim.api.core.v01.events.PersonStuckEvent
2026-06-18T12:18:35,782  INFO EventsManagerImpl:154 
2026-06-18T12:18:35,782  INFO EventsManagerImpl:138 adding Event-Handler: org.matsim.analysis.LegHistogram
2026-06-18T12:18:35,783  INFO EventsManagerImpl:144   org.matsim.api.core.v01.events.handler.PersonDepartureEventHandler
2026-06-18T12:18:35,783  INFO EventsManagerImpl:205     > org.matsim.api.core.v01.events.PersonDepartureEvent
2026-06-18T12:18:35,783  INFO EventsManagerImpl:144   org.matsim.api.core.v01.events.handler.PersonArrivalEventHandler
2026-06-18T12:18:35,783  INFO EventsManagerImpl:205     > org.matsim.api.core.v01.events.PersonArrivalEvent
2026-06-18T12:18:35,783  INFO EventsManagerImpl:144   org.matsim.api.core.v01.events.handler.PersonStuckEventHandler
2026-06-18T12:18:35,783  INFO EventsManagerImpl:205     > org.matsim.api.core.v01.events.PersonStuckEvent
2026-06-18T12:18:35,783  INFO EventsManagerImpl:154 
2026-06-18T12:18:35,787  INFO EventsManagerImpl:138 adding Event-Handler: org.matsim.analysis.CalcLegTimes
2026-06-18T12:18:35,787  INFO EventsManagerImpl:144   org.matsim.api.core.v01.events.handler.PersonDepartureEventHandler
2026-06-18T12:18:35,787  INFO EventsManagerImpl:205     > org.matsim.api.core.v01.events.PersonDepartureEvent
2026-06-18T12:18:35,787  INFO EventsManagerImpl:144   org.matsim.api.core.v01.events.handler.PersonArrivalEventHandler
2026-06-18T12:18:35,788  INFO EventsManagerImpl:205     > org.matsim.api.core.v01.events.PersonArrivalEvent
2026-06-18T12:18:35,788  INFO EventsManagerImpl:144   org.matsim.api.core.v01.events.handler.ActivityEndEventHandler
2026-06-18T12:18:35,789  INFO EventsManagerImpl:205     > org.matsim.api.core.v01.events.ActivityEndEvent
2026-06-18T12:18:35,789  INFO EventsManagerImpl:144   org.matsim.api.core.v01.events.handler.ActivityStartEventHandler
2026-06-18T12:18:35,789  INFO EventsManagerImpl:205     > org.matsim.api.core.v01.events.ActivityStartEvent
2026-06-18T12:18:35,789  INFO EventsManagerImpl:154 
2026-06-18T12:18:35,789  INFO EventsManagerImpl:138 adding Event-Handler: org.matsim.analysis.CalcLegTimes
2026-06-18T12:18:35,789  INFO EventsManagerImpl:144   org.matsim.api.core.v01.events.handler.PersonDepartureEventHandler
2026-06-18T12:18:35,789  INFO EventsManagerImpl:205     > org.matsim.api.core.v01.events.PersonDepartureEvent
2026-06-18T12:18:35,789  INFO EventsManagerImpl:144   org.matsim.api.core.v01.events.handler.PersonArrivalEventHandler
2026-06-18T12:18:35,789  INFO EventsManagerImpl:205     > org.matsim.api.core.v01.events.PersonArrivalEvent
2026-06-18T12:18:35,792  INFO EventsManagerImpl:144   org.matsim.api.core.v01.events.handler.ActivityEndEventHandler
2026-06-18T12:18:35,792  INFO EventsManagerImpl:205     > org.matsim.api.core.v01.events.ActivityEndEvent
2026-06-18T12:18:35,792  INFO EventsManagerImpl:144   org.matsim.api.core.v01.events.handler.ActivityStartEventHandler
2026-06-18T12:18:35,792  INFO EventsManagerImpl:205     > org.matsim.api.core.v01.events.ActivityStartEvent
2026-06-18T12:18:35,793  INFO EventsManagerImpl:154 
2026-06-18T12:18:35,799  INFO AbstractController:55 Used Controler-Class: org.matsim.core.controler.NewControler
2026-06-18T12:18:35,799  INFO Config:511 ConfigConsistencyChecker with runtime type=class org.matsim.core.config.consistency.ConfigConsistencyCheckerImpl was already added; not adding it a second time
2026-06-18T12:18:35,805  INFO EventsManagerImpl:138 adding Event-Handler: org.matsim.contrib.drt.analysis.zonal.ZonalIdleVehicleXYVisualiser
2026-06-18T12:18:35,805  INFO EventsManagerImpl:144   org.matsim.contrib.dvrp.vrpagent.TaskStartedEventHandler
2026-06-18T12:18:35,805  INFO EventsManagerImpl:205     > org.matsim.contrib.dvrp.vrpagent.TaskStartedEvent
2026-06-18T12:18:35,805  INFO EventsManagerImpl:144   org.matsim.contrib.dvrp.vrpagent.TaskEndedEventHandler
2026-06-18T12:18:35,805  INFO EventsManagerImpl:205     > org.matsim.contrib.dvrp.vrpagent.TaskEndedEvent
2026-06-18T12:18:35,805  INFO EventsManagerImpl:154 
2026-06-18T12:18:35,808  INFO EventsManagerImpl:138 adding Event-Handler: org.matsim.contrib.drt.analysis.zonal.ZonalIdleVehicleXYVisualiser
2026-06-18T12:18:35,808  INFO EventsManagerImpl:144   org.matsim.contrib.dvrp.vrpagent.TaskStartedEventHandler
2026-06-18T12:18:35,808  INFO EventsManagerImpl:205     > org.matsim.contrib.dvrp.vrpagent.TaskStartedEvent
2026-06-18T12:18:35,808  INFO EventsManagerImpl:144   org.matsim.contrib.dvrp.vrpagent.TaskEndedEventHandler
2026-06-18T12:18:35,810  INFO EventsManagerImpl:205     > org.matsim.contrib.dvrp.vrpagent.TaskEndedEvent
2026-06-18T12:18:35,810  INFO EventsManagerImpl:154 
2026-06-18T12:18:35,810  INFO EventsManagerImpl:138 adding Event-Handler: org.matsim.contrib.drt.optimizer.rebalancing.demandestimator.PreviousIterationDRTDemandEstimator
2026-06-18T12:18:35,811  INFO EventsManagerImpl:144   org.matsim.api.core.v01.events.handler.PersonDepartureEventHandler
2026-06-18T12:18:35,811  INFO EventsManagerImpl:205     > org.matsim.api.core.v01.events.PersonDepartureEvent
2026-06-18T12:18:35,811  INFO EventsManagerImpl:154 
2026-06-18T12:18:35,812  INFO EventsManagerImpl:138 adding Event-Handler: org.matsim.contrib.drt.optimizer.rebalancing.demandestimator.PreviousIterationDRTDemandEstimator
2026-06-18T12:18:35,812  INFO EventsManagerImpl:144   org.matsim.api.core.v01.events.handler.PersonDepartureEventHandler
2026-06-18T12:18:35,812  INFO EventsManagerImpl:205     > org.matsim.api.core.v01.events.PersonDepartureEvent
2026-06-18T12:18:35,812  INFO EventsManagerImpl:154 
2026-06-18T12:18:35,813  INFO EventsManagerImpl:138 adding Event-Handler: org.matsim.contrib.drt.fare.DrtFareHandler
2026-06-18T12:18:35,815  INFO EventsManagerImpl:144   org.matsim.contrib.drt.passenger.events.DrtRequestSubmittedEventHandler
2026-06-18T12:18:35,815  INFO EventsManagerImpl:205     > org.matsim.contrib.drt.passenger.events.DrtRequestSubmittedEvent
2026-06-18T12:18:35,815  INFO EventsManagerImpl:144   org.matsim.contrib.dvrp.passenger.PassengerDroppedOffEventHandler
2026-06-18T12:18:35,815  INFO EventsManagerImpl:205     > org.matsim.contrib.dvrp.passenger.PassengerDroppedOffEvent
2026-06-18T12:18:35,815  INFO EventsManagerImpl:154 
2026-06-18T12:18:35,815  INFO EventsManagerImpl:138 adding Event-Handler: org.matsim.contrib.drt.fare.DrtFareHandler
2026-06-18T12:18:35,815  INFO EventsManagerImpl:144   org.matsim.contrib.drt.passenger.events.DrtRequestSubmittedEventHandler
2026-06-18T12:18:35,815  INFO EventsManagerImpl:205     > org.matsim.contrib.drt.passenger.events.DrtRequestSubmittedEvent
2026-06-18T12:18:35,815  INFO EventsManagerImpl:144   org.matsim.contrib.dvrp.passenger.PassengerDroppedOffEventHandler
2026-06-18T12:18:35,815  INFO EventsManagerImpl:205     > org.matsim.contrib.dvrp.passenger.PassengerDroppedOffEvent
2026-06-18T12:18:35,815  INFO EventsManagerImpl:154 
2026-06-18T12:18:35,821  INFO EventsManagerImpl:138 adding Event-Handler: org.matsim.contrib.dvrp.analysis.ExecutedScheduleCollector
2026-06-18T12:18:35,821  INFO EventsManagerImpl:144   org.matsim.contrib.dvrp.vrpagent.TaskStartedEventHandler
2026-06-18T12:18:35,821  INFO EventsManagerImpl:205     > org.matsim.contrib.dvrp.vrpagent.TaskStartedEvent
2026-06-18T12:18:35,821  INFO EventsManagerImpl:144   org.matsim.contrib.dvrp.vrpagent.TaskEndedEventHandler
2026-06-18T12:18:35,821  INFO EventsManagerImpl:205     > org.matsim.contrib.dvrp.vrpagent.TaskEndedEvent
2026-06-18T12:18:35,821  INFO EventsManagerImpl:154 
2026-06-18T12:18:35,821  INFO EventsManagerImpl:138 adding Event-Handler: org.matsim.contrib.dvrp.analysis.ExecutedScheduleCollector
2026-06-18T12:18:35,825  INFO EventsManagerImpl:144   org.matsim.contrib.dvrp.vrpagent.TaskStartedEventHandler
2026-06-18T12:18:35,825  INFO EventsManagerImpl:205     > org.matsim.contrib.dvrp.vrpagent.TaskStartedEvent
2026-06-18T12:18:35,825  INFO EventsManagerImpl:144   org.matsim.contrib.dvrp.vrpagent.TaskEndedEventHandler
2026-06-18T12:18:35,825  INFO EventsManagerImpl:205     > org.matsim.contrib.dvrp.vrpagent.TaskEndedEvent
2026-06-18T12:18:35,825  INFO EventsManagerImpl:154 
2026-06-18T12:18:35,825  INFO EventsManagerImpl:138 adding Event-Handler: org.matsim.contrib.drt.analysis.DrtVehicleDistanceStats
2026-06-18T12:18:35,825  INFO EventsManagerImpl:144   org.matsim.contrib.dvrp.passenger.PassengerPickedUpEventHandler
2026-06-18T12:18:35,825  INFO EventsManagerImpl:205     > org.matsim.contrib.dvrp.passenger.PassengerPickedUpEvent
2026-06-18T12:18:35,829  INFO EventsManagerImpl:144   org.matsim.api.core.v01.events.handler.LinkEnterEventHandler
2026-06-18T12:18:35,829  INFO EventsManagerImpl:205     > org.matsim.api.core.v01.events.LinkEnterEvent
2026-06-18T12:18:35,830  INFO EventsManagerImpl:144   org.matsim.contrib.dvrp.passenger.PassengerDroppedOffEventHandler
2026-06-18T12:18:35,830  INFO EventsManagerImpl:205     > org.matsim.contrib.dvrp.passenger.PassengerDroppedOffEvent
2026-06-18T12:18:35,830  INFO EventsManagerImpl:144   org.matsim.core.api.experimental.events.handler.TeleportationArrivalEventHandler
2026-06-18T12:18:35,830  INFO EventsManagerImpl:205     > org.matsim.core.api.experimental.events.TeleportationArrivalEvent
2026-06-18T12:18:35,830  INFO EventsManagerImpl:154 
2026-06-18T12:18:35,830  INFO EventsManagerImpl:138 adding Event-Handler: org.matsim.contrib.drt.analysis.DrtVehicleDistanceStats
2026-06-18T12:18:35,830  INFO EventsManagerImpl:144   org.matsim.contrib.dvrp.passenger.PassengerPickedUpEventHandler
2026-06-18T12:18:35,834  INFO EventsManagerImpl:205     > org.matsim.contrib.dvrp.passenger.PassengerPickedUpEvent
2026-06-18T12:18:35,834  INFO EventsManagerImpl:144   org.matsim.api.core.v01.events.handler.LinkEnterEventHandler
2026-06-18T12:18:35,834  INFO EventsManagerImpl:205     > org.matsim.api.core.v01.events.LinkEnterEvent
2026-06-18T12:18:35,834  INFO EventsManagerImpl:144   org.matsim.contrib.dvrp.passenger.PassengerDroppedOffEventHandler
2026-06-18T12:18:35,834  INFO EventsManagerImpl:205     > org.matsim.contrib.dvrp.passenger.PassengerDroppedOffEvent
2026-06-18T12:18:35,834  INFO EventsManagerImpl:144   org.matsim.core.api.experimental.events.handler.TeleportationArrivalEventHandler
2026-06-18T12:18:35,834  INFO EventsManagerImpl:205     > org.matsim.core.api.experimental.events.TeleportationArrivalEvent
2026-06-18T12:18:35,834  INFO EventsManagerImpl:154 
2026-06-18T12:18:35,834  INFO EventsManagerImpl:138 adding Event-Handler: org.matsim.contrib.drt.analysis.DrtEventSequenceCollector
2026-06-18T12:18:35,834  INFO EventsManagerImpl:144   org.matsim.contrib.dvrp.passenger.PassengerRequestRejectedEventHandler
2026-06-18T12:18:35,834  INFO EventsManagerImpl:205     > org.matsim.contrib.dvrp.passenger.PassengerRequestRejectedEvent
2026-06-18T12:18:35,834  INFO EventsManagerImpl:144   org.matsim.contrib.dvrp.passenger.PassengerRequestScheduledEventHandler
2026-06-18T12:18:35,834  INFO EventsManagerImpl:205     > org.matsim.contrib.dvrp.passenger.PassengerRequestScheduledEvent
2026-06-18T12:18:35,834  INFO EventsManagerImpl:144   org.matsim.contrib.drt.passenger.events.DrtRequestSubmittedEventHandler
2026-06-18T12:18:35,834  INFO EventsManagerImpl:205     > org.matsim.contrib.drt.passenger.events.DrtRequestSubmittedEvent
2026-06-18T12:18:35,842  INFO EventsManagerImpl:144   org.matsim.contrib.dvrp.passenger.PassengerPickedUpEventHandler
2026-06-18T12:18:35,842  INFO EventsManagerImpl:205     > org.matsim.contrib.dvrp.passenger.PassengerPickedUpEvent
2026-06-18T12:18:35,842  INFO EventsManagerImpl:144   org.matsim.contrib.dvrp.passenger.PassengerDroppedOffEventHandler
2026-06-18T12:18:35,844  INFO EventsManagerImpl:205     > org.matsim.contrib.dvrp.passenger.PassengerDroppedOffEvent
2026-06-18T12:18:35,844  INFO EventsManagerImpl:144   org.matsim.api.core.v01.events.handler.PersonMoneyEventHandler
2026-06-18T12:18:35,845  INFO EventsManagerImpl:205     > org.matsim.api.core.v01.events.PersonMoneyEvent
2026-06-18T12:18:35,845  INFO EventsManagerImpl:144   org.matsim.api.core.v01.events.handler.PersonDepartureEventHandler
2026-06-18T12:18:35,845  INFO EventsManagerImpl:205     > org.matsim.api.core.v01.events.PersonDepartureEvent
2026-06-18T12:18:35,845  INFO EventsManagerImpl:154 
2026-06-18T12:18:35,845  INFO EventsManagerImpl:138 adding Event-Handler: org.matsim.contrib.drt.analysis.DrtEventSequenceCollector
2026-06-18T12:18:35,845  INFO EventsManagerImpl:144   org.matsim.contrib.dvrp.passenger.PassengerRequestRejectedEventHandler
2026-06-18T12:18:35,845  INFO EventsManagerImpl:205     > org.matsim.contrib.dvrp.passenger.PassengerRequestRejectedEvent
2026-06-18T12:18:35,845  INFO EventsManagerImpl:144   org.matsim.contrib.dvrp.passenger.PassengerRequestScheduledEventHandler
2026-06-18T12:18:35,845  INFO EventsManagerImpl:205     > org.matsim.contrib.dvrp.passenger.PassengerRequestScheduledEvent
2026-06-18T12:18:35,845  INFO EventsManagerImpl:144   org.matsim.contrib.drt.passenger.events.DrtRequestSubmittedEventHandler
2026-06-18T12:18:35,845  INFO EventsManagerImpl:205     > org.matsim.contrib.drt.passenger.events.DrtRequestSubmittedEvent
2026-06-18T12:18:35,845  INFO EventsManagerImpl:144   org.matsim.contrib.dvrp.passenger.PassengerPickedUpEventHandler
2026-06-18T12:18:35,845  INFO EventsManagerImpl:205     > org.matsim.contrib.dvrp.passenger.PassengerPickedUpEvent
2026-06-18T12:18:35,845  INFO EventsManagerImpl:144   org.matsim.contrib.dvrp.passenger.PassengerDroppedOffEventHandler
2026-06-18T12:18:35,845  INFO EventsManagerImpl:205     > org.matsim.contrib.dvrp.passenger.PassengerDroppedOffEvent
2026-06-18T12:18:35,845  INFO EventsManagerImpl:144   org.matsim.api.core.v01.events.handler.PersonMoneyEventHandler
2026-06-18T12:18:35,845  INFO EventsManagerImpl:205     > org.matsim.api.core.v01.events.PersonMoneyEvent
2026-06-18T12:18:35,861  INFO EventsManagerImpl:144   org.matsim.api.core.v01.events.handler.PersonDepartureEventHandler
2026-06-18T12:18:35,861  INFO EventsManagerImpl:205     > org.matsim.api.core.v01.events.PersonDepartureEvent
2026-06-18T12:18:35,861  INFO EventsManagerImpl:154 
2026-06-18T12:18:35,861  INFO EventsManagerImpl:138 adding Event-Handler: org.matsim.contrib.dvrp.analysis.VehicleOccupancyProfileCalculator
2026-06-18T12:18:35,861  INFO EventsManagerImpl:144   org.matsim.api.core.v01.events.handler.PersonEntersVehicleEventHandler
2026-06-18T12:18:35,861  INFO EventsManagerImpl:205     > org.matsim.api.core.v01.events.PersonEntersVehicleEvent
2026-06-18T12:18:35,861  INFO EventsManagerImpl:144   org.matsim.api.core.v01.events.handler.PersonLeavesVehicleEventHandler
2026-06-18T12:18:35,861  INFO EventsManagerImpl:205     > org.matsim.api.core.v01.events.PersonLeavesVehicleEvent
2026-06-18T12:18:35,861  INFO EventsManagerImpl:144   org.matsim.contrib.dvrp.vrpagent.TaskStartedEventHandler
2026-06-18T12:18:35,861  INFO EventsManagerImpl:205     > org.matsim.contrib.dvrp.vrpagent.TaskStartedEvent
2026-06-18T12:18:35,861  INFO EventsManagerImpl:144   org.matsim.contrib.dvrp.vrpagent.TaskEndedEventHandler
2026-06-18T12:18:35,861  INFO EventsManagerImpl:205     > org.matsim.contrib.dvrp.vrpagent.TaskEndedEvent
2026-06-18T12:18:35,861  INFO EventsManagerImpl:154 
2026-06-18T12:18:35,861  INFO EventsManagerImpl:138 adding Event-Handler: org.matsim.contrib.dvrp.analysis.VehicleOccupancyProfileCalculator
2026-06-18T12:18:35,861  INFO EventsManagerImpl:144   org.matsim.api.core.v01.events.handler.PersonEntersVehicleEventHandler
2026-06-18T12:18:35,861  INFO EventsManagerImpl:205     > org.matsim.api.core.v01.events.PersonEntersVehicleEvent
2026-06-18T12:18:35,861  INFO EventsManagerImpl:144   org.matsim.api.core.v01.events.handler.PersonLeavesVehicleEventHandler
2026-06-18T12:18:35,861  INFO EventsManagerImpl:205     > org.matsim.api.core.v01.events.PersonLeavesVehicleEvent
2026-06-18T12:18:35,861  INFO EventsManagerImpl:144   org.matsim.contrib.dvrp.vrpagent.TaskStartedEventHandler
2026-06-18T12:18:35,861  INFO EventsManagerImpl:205     > org.matsim.contrib.dvrp.vrpagent.TaskStartedEvent
2026-06-18T12:18:35,861  INFO EventsManagerImpl:144   org.matsim.contrib.dvrp.vrpagent.TaskEndedEventHandler
2026-06-18T12:18:35,861  INFO EventsManagerImpl:205     > org.matsim.contrib.dvrp.vrpagent.TaskEndedEvent
2026-06-18T12:18:35,861  INFO EventsManagerImpl:154 
2026-06-18T12:18:35,861  INFO EventsManagerImpl:138 adding Event-Handler: org.matsim.contrib.dvrp.analysis.VehicleTaskProfileCalculator
2026-06-18T12:18:35,861  INFO EventsManagerImpl:144   org.matsim.contrib.dvrp.vrpagent.TaskStartedEventHandler
2026-06-18T12:18:35,861  INFO EventsManagerImpl:205     > org.matsim.contrib.dvrp.vrpagent.TaskStartedEvent
2026-06-18T12:18:35,861  INFO EventsManagerImpl:144   org.matsim.contrib.dvrp.vrpagent.TaskEndedEventHandler
2026-06-18T12:18:35,861  INFO EventsManagerImpl:205     > org.matsim.contrib.dvrp.vrpagent.TaskEndedEvent
2026-06-18T12:18:35,861  INFO EventsManagerImpl:154 
2026-06-18T12:18:35,861  INFO EventsManagerImpl:138 adding Event-Handler: org.matsim.contrib.dvrp.analysis.VehicleTaskProfileCalculator
2026-06-18T12:18:35,861  INFO EventsManagerImpl:144   org.matsim.contrib.dvrp.vrpagent.TaskStartedEventHandler
2026-06-18T12:18:35,861  INFO EventsManagerImpl:205     > org.matsim.contrib.dvrp.vrpagent.TaskStartedEvent
2026-06-18T12:18:35,861  INFO EventsManagerImpl:144   org.matsim.contrib.dvrp.vrpagent.TaskEndedEventHandler
2026-06-18T12:18:35,861  INFO EventsManagerImpl:205     > org.matsim.contrib.dvrp.vrpagent.TaskEndedEvent
2026-06-18T12:18:35,861  INFO EventsManagerImpl:154 
2026-06-18T12:18:35,861  INFO Injector:81 === printInjector start ===
2026-06-18T12:18:35,877  INFO Injector:85 org.matsim.core.mobsim.qsim.components.QSimComponentsConfig 
2026-06-18T12:18:35,877  INFO Injector:86   --> provider: ConstantFactory{value=org.matsim.core.mobsim.qsim.components.QSimComponentsConfig@1d4fb213}[Scopes.SINGLETON]
2026-06-18T12:18:35,877  INFO Injector:87   --> source: org.matsim.core.controler.Controler$10.install(Controler.java:518)
2026-06-18T12:18:35,883  INFO Injector:89   --> scope: eager singleton
2026-06-18T12:18:35,883  INFO Injector:94   ==full==> InstanceBinding{key=Key[type=org.matsim.core.mobsim.qsim.components.QSimComponentsConfig, annotation=[none]], source=org.matsim.core.controler.Controler$10.install(Controler.java:518), instance=org.matsim.core.mobsim.qsim.components.QSimComponentsConfig@1d4fb213}
2026-06-18T12:18:35,883  INFO Injector:96 
2026-06-18T12:18:35,883  INFO Injector:85 org.matsim.vis.otfvis.OnTheFlyServer$NonPlanAgentQueryHelper 
2026-06-18T12:18:35,883  INFO Injector:86   --> provider: FactoryProxy{key=Key[type=org.matsim.vis.otfvis.OnTheFlyServer$NonPlanAgentQueryHelper, annotation=[none]], provider=com.google.inject.internal.ConstructorBindingImpl$Factory@6ef60295}
2026-06-18T12:18:35,883  INFO Injector:87   --> source: org.matsim.contrib.dvrp.run.DvrpModule.install(DvrpModule.java:68)
2026-06-18T12:18:35,883  INFO Injector:89   --> scope: Scopes.NO_SCOPE
2026-06-18T12:18:35,883  INFO Injector:92   --> target: Key[type=org.matsim.contrib.dvrp.vrpagent.VrpAgentQueryHelper, annotation=[none]]
2026-06-18T12:18:35,883  INFO Injector:94   ==full==> LinkedKeyBinding{key=Key[type=org.matsim.vis.otfvis.OnTheFlyServer$NonPlanAgentQueryHelper, annotation=[none]], source=org.matsim.contrib.dvrp.run.DvrpModule.install(DvrpModule.java:68), scope=Scopes.NO_SCOPE, target=Key[type=org.matsim.contrib.dvrp.vrpagent.VrpAgentQueryHelper, annotation=[none]]}
2026-06-18T12:18:35,883  INFO Injector:96 
2026-06-18T12:18:35,883  INFO Injector:85 org.matsim.core.router.util.TravelTime @com.google.inject.name.Named("dvrp_initial")
2026-06-18T12:18:35,883  INFO Injector:86   --> provider: FactoryProxy{key=Key[type=org.matsim.core.router.util.TravelTime, annotation=@com.google.inject.name.Named("dvrp_initial")], provider=com.google.inject.internal.ConstructorBindingImpl$Factory@3127cb44}[Scopes.SINGLETON]
2026-06-18T12:18:35,883  INFO Injector:87   --> source: org.matsim.contrib.dvrp.trafficmonitoring.DvrpTravelTimeModule.install(DvrpTravelTimeModule.java:55)
2026-06-18T12:18:35,883  INFO Injector:89   --> scope: eager singleton
2026-06-18T12:18:35,883  INFO Injector:92   --> target: Key[type=org.matsim.contrib.dvrp.trafficmonitoring.QSimFreeSpeedTravelTime, annotation=[none]]
2026-06-18T12:18:35,883  INFO Injector:94   ==full==> LinkedKeyBinding{key=Key[type=org.matsim.core.router.util.TravelTime, annotation=@com.google.inject.name.Named("dvrp_initial")], source=org.matsim.contrib.dvrp.trafficmonitoring.DvrpTravelTimeModule.install(DvrpTravelTimeModule.java:55), scope=eager singleton, target=Key[type=org.matsim.contrib.dvrp.trafficmonitoring.QSimFreeSpeedTravelTime, annotation=[none]]}
2026-06-18T12:18:35,883  INFO Injector:96 
2026-06-18T12:18:35,883  INFO Injector:85 org.matsim.core.router.util.TravelTime @com.google.inject.name.Named("dvrp_observed")
2026-06-18T12:18:35,883  INFO Injector:86   --> provider: FactoryProxy{key=Key[type=org.matsim.core.router.util.TravelTime, annotation=@com.google.inject.name.Named("dvrp_observed")], provider=org.matsim.core.trafficmonitoring.TravelTimeCalculatorModule$1@2938127d[Scopes.SINGLETON]}
2026-06-18T12:18:35,883  INFO Injector:87   --> source: org.matsim.contrib.dvrp.trafficmonitoring.DvrpTravelTimeModule.install(DvrpTravelTimeModule.java:58)
2026-06-18T12:18:35,883  INFO Injector:89   --> scope: Scopes.NO_SCOPE
2026-06-18T12:18:35,883  INFO Injector:92   --> target: Key[type=org.matsim.core.router.util.TravelTime, annotation=@com.google.inject.name.Named("car")]
2026-06-18T12:18:35,883  INFO Injector:94   ==full==> LinkedKeyBinding{key=Key[type=org.matsim.core.router.util.TravelTime, annotation=@com.google.inject.name.Named("dvrp_observed")], source=org.matsim.contrib.dvrp.trafficmonitoring.DvrpTravelTimeModule.install(DvrpTravelTimeModule.java:58), scope=Scopes.NO_SCOPE, target=Key[type=org.matsim.core.router.util.TravelTime, annotation=@com.google.inject.name.Named("car")]}
2026-06-18T12:18:35,883  INFO Injector:96 
2026-06-18T12:18:35,883  INFO Injector:85 org.matsim.core.router.util.TravelTime @com.google.inject.name.Named("dvrp_estimated")
2026-06-18T12:18:35,893  INFO Injector:86   --> provider: FactoryProxy{key=Key[type=org.matsim.core.router.util.TravelTime, annotation=@com.google.inject.name.Named("dvrp_estimated")], provider=FactoryProxy{key=Key[type=org.matsim.contrib.dvrp.trafficmonitoring.DvrpTravelTimeEstimator, annotation=[none]], provider=com.google.inject.internal.ConstructorBindingImpl$Factory@3234474[Scopes.SINGLETON]}}
2026-06-18T12:18:35,893  INFO Injector:87   --> source: org.matsim.contrib.dvrp.trafficmonitoring.DvrpTravelTimeModule.install(DvrpTravelTimeModule.java:60)
2026-06-18T12:18:35,893  INFO Injector:89   --> scope: Scopes.NO_SCOPE
2026-06-18T12:18:35,893  INFO Injector:92   --> target: Key[type=org.matsim.contrib.dvrp.trafficmonitoring.DvrpTravelTimeEstimator, annotation=[none]]
2026-06-18T12:18:35,893  INFO Injector:94   ==full==> LinkedKeyBinding{key=Key[type=org.matsim.core.router.util.TravelTime, annotation=@com.google.inject.name.Named("dvrp_estimated")], source=org.matsim.contrib.dvrp.trafficmonitoring.DvrpTravelTimeModule.install(DvrpTravelTimeModule.java:60), scope=Scopes.NO_SCOPE, target=Key[type=org.matsim.contrib.dvrp.trafficmonitoring.DvrpTravelTimeEstimator, annotation=[none]]}
2026-06-18T12:18:35,893  INFO Injector:96 
2026-06-18T12:18:35,893  INFO Injector:85 org.matsim.core.mobsim.framework.listeners.MobsimListener @com.google.inject.internal.Element(setName=,uniqueId=186, type=MULTIBINDER, keyType=)
2026-06-18T12:18:35,893  INFO Injector:86   --> provider: FactoryProxy{key=Key[type=org.matsim.core.mobsim.framework.listeners.MobsimListener, annotation=@com.google.inject.internal.Element(setName=,uniqueId=186, type=MULTIBINDER, keyType=)], provider=com.google.inject.internal.ConstructorBindingImpl$Factory@3234474[Scopes.SINGLETON]}
2026-06-18T12:18:35,893  INFO Injector:87   --> source: org.matsim.contrib.dvrp.trafficmonitoring.DvrpTravelTimeModule.install(DvrpTravelTimeModule.java:63)
2026-06-18T12:18:35,893  INFO Injector:89   --> scope: Scopes.NO_SCOPE
2026-06-18T12:18:35,893  INFO Injector:92   --> target: Key[type=org.matsim.contrib.dvrp.trafficmonitoring.DvrpOfflineTravelTimeEstimator, annotation=[none]]
2026-06-18T12:18:35,893  INFO Injector:94   ==full==> LinkedKeyBinding{key=Key[type=org.matsim.core.mobsim.framework.listeners.MobsimListener, annotation=@com.google.inject.internal.Element(setName=,uniqueId=186, type=MULTIBINDER, keyType=)], source=org.matsim.contrib.dvrp.trafficmonitoring.DvrpTravelTimeModule.install(DvrpTravelTimeModule.java:63), scope=Scopes.NO_SCOPE, target=Key[type=org.matsim.contrib.dvrp.trafficmonitoring.DvrpOfflineTravelTimeEstimator, annotation=[none]]}
2026-06-18T12:18:35,893  INFO Injector:96 
2026-06-18T12:18:35,893  INFO Injector:85 org.matsim.core.controler.listener.ControlerListener @com.google.inject.internal.Element(setName=,uniqueId=187, type=MULTIBINDER, keyType=)
2026-06-18T12:18:35,893  INFO Injector:86   --> provider: FactoryProxy{key=Key[type=org.matsim.core.controler.listener.ControlerListener, annotation=@com.google.inject.internal.Element(setName=,uniqueId=187, type=MULTIBINDER, keyType=)], provider=com.google.inject.internal.ConstructorBindingImpl$Factory@3234474[Scopes.SINGLETON]}
2026-06-18T12:18:35,893  INFO Injector:87   --> source: org.matsim.contrib.dvrp.trafficmonitoring.DvrpTravelTimeModule.install(DvrpTravelTimeModule.java:64)
2026-06-18T12:18:35,893  INFO Injector:89   --> scope: Scopes.NO_SCOPE
2026-06-18T12:18:35,893  INFO Injector:92   --> target: Key[type=org.matsim.contrib.dvrp.trafficmonitoring.DvrpOfflineTravelTimeEstimator, annotation=[none]]
2026-06-18T12:18:35,893  INFO Injector:94   ==full==> LinkedKeyBinding{key=Key[type=org.matsim.core.controler.listener.ControlerListener, annotation=@com.google.inject.internal.Element(setName=,uniqueId=187, type=MULTIBINDER, keyType=)], source=org.matsim.contrib.dvrp.trafficmonitoring.DvrpTravelTimeModule.install(DvrpTravelTimeModule.java:64), scope=Scopes.NO_SCOPE, target=Key[type=org.matsim.contrib.dvrp.trafficmonitoring.DvrpOfflineTravelTimeEstimator, annotation=[none]]}
2026-06-18T12:18:35,893  INFO Injector:96 
2026-06-18T12:18:35,893  INFO Injector:85 org.matsim.contrib.dvrp.trafficmonitoring.DvrpTravelTimeEstimator 
2026-06-18T12:18:35,893  INFO Injector:86   --> provider: FactoryProxy{key=Key[type=org.matsim.contrib.dvrp.trafficmonitoring.DvrpTravelTimeEstimator, annotation=[none]], provider=com.google.inject.internal.ConstructorBindingImpl$Factory@3234474[Scopes.SINGLETON]}
2026-06-18T12:18:35,893  INFO Injector:87   --> source: org.matsim.contrib.dvrp.trafficmonitoring.DvrpTravelTimeModule.install(DvrpTravelTimeModule.java:76)
2026-06-18T12:18:35,893  INFO Injector:89   --> scope: Scopes.NO_SCOPE
2026-06-18T12:18:35,893  INFO Injector:92   --> target: Key[type=org.matsim.contrib.dvrp.trafficmonitoring.DvrpOfflineTravelTimeEstimator, annotation=[none]]
2026-06-18T12:18:35,893  INFO Injector:94   ==full==> LinkedKeyBinding{key=Key[type=org.matsim.contrib.dvrp.trafficmonitoring.DvrpTravelTimeEstimator, annotation=[none]], source=org.matsim.contrib.dvrp.trafficmonitoring.DvrpTravelTimeModule.install(DvrpTravelTimeModule.java:76), scope=Scopes.NO_SCOPE, target=Key[type=org.matsim.contrib.dvrp.trafficmonitoring.DvrpOfflineTravelTimeEstimator, annotation=[none]]}
2026-06-18T12:18:35,893  INFO Injector:96 
2026-06-18T12:18:35,893  INFO Injector:85 org.matsim.contrib.zone.skims.TravelTimeMatrix 
2026-06-18T12:18:35,893  INFO Injector:86   --> provider: org.matsim.contrib.dvrp.run.DvrpModule$1@50fb33a[Scopes.SINGLETON]
2026-06-18T12:18:35,893  INFO Injector:87   --> source: org.matsim.contrib.dvrp.run.DvrpModule.install(DvrpModule.java:75)
2026-06-18T12:18:35,893  INFO Injector:89   --> scope: Scopes.SINGLETON
2026-06-18T12:18:35,893  INFO Injector:94   ==full==> ProviderInstanceBinding{key=Key[type=org.matsim.contrib.zone.skims.TravelTimeMatrix, annotation=[none]], source=org.matsim.contrib.dvrp.run.DvrpModule.install(DvrpModule.java:75), scope=Scopes.SINGLETON, provider=org.matsim.contrib.dvrp.run.DvrpModule$1@50fb33a}
2026-06-18T12:18:35,893  INFO Injector:96 
2026-06-18T12:18:35,909  INFO Injector:85 org.matsim.api.core.v01.network.Network @com.google.inject.name.Named("dvrp_routing")
2026-06-18T12:18:35,909  INFO Injector:86   --> provider: Key[type=org.matsim.contrib.dvrp.router.DvrpGlobalRoutingNetworkProvider, annotation=[none]][Scopes.SINGLETON]
2026-06-18T12:18:35,909  INFO Injector:87   --> source: org.matsim.contrib.dvrp.run.DvrpModule.install(DvrpModule.java:92)
2026-06-18T12:18:35,909  INFO Injector:89   --> scope: eager singleton
2026-06-18T12:18:35,909  INFO Injector:94   ==full==> ProviderKeyBinding{key=Key[type=org.matsim.api.core.v01.network.Network, annotation=@com.google.inject.name.Named("dvrp_routing")], source=org.matsim.contrib.dvrp.run.DvrpModule.install(DvrpModule.java:92), scope=eager singleton, provider=Key[type=org.matsim.contrib.dvrp.router.DvrpGlobalRoutingNetworkProvider, annotation=[none]]}
2026-06-18T12:18:35,909  INFO Injector:96 
2026-06-18T12:18:35,909  INFO Injector:85 org.matsim.core.mobsim.qsim.AbstractQSimModule @com.google.inject.internal.Element(setName=,uniqueId=188, type=MULTIBINDER, keyType=)
2026-06-18T12:18:35,909  INFO Injector:86   --> provider: ConstantFactory{value=org.matsim.contrib.dvrp.run.DvrpModule$2@6732726}[Scopes.SINGLETON]
2026-06-18T12:18:35,909  INFO Injector:87   --> source: org.matsim.contrib.dvrp.run.DvrpModule.install(DvrpModule.java:96)
2026-06-18T12:18:35,909  INFO Injector:89   --> scope: eager singleton
2026-06-18T12:18:35,909  INFO Injector:94   ==full==> InstanceBinding{key=Key[type=org.matsim.core.mobsim.qsim.AbstractQSimModule, annotation=@com.google.inject.internal.Element(setName=,uniqueId=188, type=MULTIBINDER, keyType=)], source=org.matsim.contrib.dvrp.run.DvrpModule.install(DvrpModule.java:96), instance=org.matsim.contrib.dvrp.run.DvrpModule$2@6732726}
2026-06-18T12:18:35,909  INFO Injector:96 
2026-06-18T12:18:35,909  INFO Injector:85 org.matsim.core.mobsim.qsim.AbstractQSimModule @com.google.inject.internal.Element(setName=,uniqueId=189, type=MULTIBINDER, keyType=)
2026-06-18T12:18:35,909  INFO Injector:86   --> provider: ConstantFactory{value=org.matsim.core.mobsim.qsim.PreplanningEngineQSimModule@474821de}[Scopes.SINGLETON]
2026-06-18T12:18:35,909  INFO Injector:87   --> source: org.matsim.contrib.dvrp.passenger.PassengerModule.install(PassengerModule.java:39)
2026-06-18T12:18:35,909  INFO Injector:89   --> scope: eager singleton
2026-06-18T12:18:35,909  INFO Injector:94   ==full==> InstanceBinding{key=Key[type=org.matsim.core.mobsim.qsim.AbstractQSimModule, annotation=@com.google.inject.internal.Element(setName=,uniqueId=189, type=MULTIBINDER, keyType=)], source=org.matsim.contrib.dvrp.passenger.PassengerModule.install(PassengerModule.java:39), instance=org.matsim.core.mobsim.qsim.PreplanningEngineQSimModule@474821de}
2026-06-18T12:18:35,909  INFO Injector:96 
2026-06-18T12:18:35,909  INFO Injector:85 org.matsim.contrib.dvrp.run.DvrpMode @com.google.inject.internal.Element(setName=,uniqueId=165, type=MULTIBINDER, keyType=)
2026-06-18T12:18:35,909  INFO Injector:86   --> provider: ConstantFactory{value=@org.matsim.contrib.dvrp.run.DvrpMode(value=drt)}[Scopes.SINGLETON]
2026-06-18T12:18:35,909  INFO Injector:87   --> source: org.matsim.contrib.dvrp.run.DvrpModes.registerDvrpMode(DvrpModes.java:40)
2026-06-18T12:18:35,925  INFO Injector:89   --> scope: eager singleton
2026-06-18T12:18:35,925  INFO Injector:94   ==full==> InstanceBinding{key=Key[type=org.matsim.contrib.dvrp.run.DvrpMode, annotation=@com.google.inject.internal.Element(setName=,uniqueId=165, type=MULTIBINDER, keyType=)], source=org.matsim.contrib.dvrp.run.DvrpModes.registerDvrpMode(DvrpModes.java:40), instance=@org.matsim.contrib.dvrp.run.DvrpMode(value=drt)}
2026-06-18T12:18:35,925  INFO Injector:96 
2026-06-18T12:18:35,925  INFO Injector:85 org.matsim.api.core.v01.network.Network @org.matsim.contrib.dvrp.run.DvrpMode(value=drt)
2026-06-18T12:18:35,925  INFO Injector:86   --> provider: FactoryProxy{key=Key[type=org.matsim.api.core.v01.network.Network, annotation=@org.matsim.contrib.dvrp.run.DvrpMode(value=drt)], provider=Key[type=org.matsim.contrib.dvrp.router.DvrpGlobalRoutingNetworkProvider, annotation=[none]][Scopes.SINGLETON]}
2026-06-18T12:18:35,925  INFO Injector:87   --> source: org.matsim.core.modal.AbstractModalModule.bindModal(AbstractModalModule.java:59)
2026-06-18T12:18:35,925  INFO Injector:89   --> scope: Scopes.NO_SCOPE
2026-06-18T12:18:35,925  INFO Injector:92   --> target: Key[type=org.matsim.api.core.v01.network.Network, annotation=@com.google.inject.name.Named("dvrp_routing")]
2026-06-18T12:18:35,925  INFO Injector:94   ==full==> LinkedKeyBinding{key=Key[type=org.matsim.api.core.v01.network.Network, annotation=@org.matsim.contrib.dvrp.run.DvrpMode(value=drt)], source=org.matsim.core.modal.AbstractModalModule.bindModal(AbstractModalModule.java:59), scope=Scopes.NO_SCOPE, target=Key[type=org.matsim.api.core.v01.network.Network, annotation=@com.google.inject.name.Named("dvrp_routing")]}
2026-06-18T12:18:35,925  INFO Injector:96 
2026-06-18T12:18:35,925  INFO Injector:85 org.matsim.contrib.zone.skims.TravelTimeMatrix @org.matsim.contrib.dvrp.run.DvrpMode(value=drt)
2026-06-18T12:18:35,925  INFO Injector:86   --> provider: FactoryProxy{key=Key[type=org.matsim.contrib.zone.skims.TravelTimeMatrix, annotation=@org.matsim.contrib.dvrp.run.DvrpMode(value=drt)], provider=org.matsim.contrib.dvrp.run.DvrpModule$1@50fb33a[Scopes.SINGLETON]}
2026-06-18T12:18:35,925  INFO Injector:87   --> source: org.matsim.core.modal.AbstractModalModule.bindModal(AbstractModalModule.java:59)
2026-06-18T12:18:35,941  INFO Injector:89   --> scope: Scopes.NO_SCOPE
2026-06-18T12:18:35,941  INFO Injector:92   --> target: Key[type=org.matsim.contrib.zone.skims.TravelTimeMatrix, annotation=[none]]
2026-06-18T12:18:35,941  INFO Injector:94   ==full==> LinkedKeyBinding{key=Key[type=org.matsim.contrib.zone.skims.TravelTimeMatrix, annotation=@org.matsim.contrib.dvrp.run.DvrpMode(value=drt)], source=org.matsim.core.modal.AbstractModalModule.bindModal(AbstractModalModule.java:59), scope=Scopes.NO_SCOPE, target=Key[type=org.matsim.contrib.zone.skims.TravelTimeMatrix, annotation=[none]]}
2026-06-18T12:18:35,941  INFO Injector:96 
2026-06-18T12:18:35,941  INFO Injector:85 org.matsim.core.router.util.TravelTime @org.matsim.contrib.dvrp.run.DvrpMode(value=drt)
2026-06-18T12:18:35,941  INFO Injector:86   --> provider: FactoryProxy{key=Key[type=org.matsim.core.router.util.TravelTime, annotation=@org.matsim.contrib.dvrp.run.DvrpMode(value=drt)], provider=FactoryProxy{key=Key[type=org.matsim.core.router.util.TravelTime, annotation=@com.google.inject.name.Named("dvrp_estimated")], provider=FactoryProxy{key=Key[type=org.matsim.contrib.dvrp.trafficmonitoring.DvrpTravelTimeEstimator, annotation=[none]], provider=com.google.inject.internal.ConstructorBindingImpl$Factory@3234474[Scopes.SINGLETON]}}}
2026-06-18T12:18:35,941  INFO Injector:87   --> source: org.matsim.core.modal.AbstractModalModule.bindModal(AbstractModalModule.java:59)
2026-06-18T12:18:35,941  INFO Injector:89   --> scope: Scopes.NO_SCOPE
2026-06-18T12:18:35,941  INFO Injector:92   --> target: Key[type=org.matsim.core.router.util.TravelTime, annotation=@com.google.inject.name.Named("dvrp_estimated")]
2026-06-18T12:18:35,941  INFO Injector:94   ==full==> LinkedKeyBinding{key=Key[type=org.matsim.core.router.util.TravelTime, annotation=@org.matsim.contrib.dvrp.run.DvrpMode(value=drt)], source=org.matsim.core.modal.AbstractModalModule.bindModal(AbstractModalModule.java:59), scope=Scopes.NO_SCOPE, target=Key[type=org.matsim.core.router.util.TravelTime, annotation=@com.google.inject.name.Named("dvrp_estimated")]}
2026-06-18T12:18:35,941  INFO Injector:96 
2026-06-18T12:18:35,941  INFO Injector:85 org.matsim.core.router.costcalculators.TravelDisutilityFactory @org.matsim.contrib.dvrp.run.DvrpMode(value=drt)
2026-06-18T12:18:35,941  INFO Injector:86   --> provider: ConstantFactory{value=org.matsim.contrib.drt.run.DrtModeModule$$Lambda/0x0000000020356fd8@631cb129}[Scopes.SINGLETON]
2026-06-18T12:18:35,941  INFO Injector:87   --> source: org.matsim.core.modal.AbstractModalModule.bindModal(AbstractModalModule.java:59)
2026-06-18T12:18:35,941  INFO Injector:89   --> scope: eager singleton
2026-06-18T12:18:35,941  INFO Injector:94   ==full==> InstanceBinding{key=Key[type=org.matsim.core.router.costcalculators.TravelDisutilityFactory, annotation=@org.matsim.contrib.dvrp.run.DvrpMode(value=drt)], source=org.matsim.core.modal.AbstractModalModule.bindModal(AbstractModalModule.java:59), instance=org.matsim.contrib.drt.run.DrtModeModule$$Lambda/0x0000000020356fd8@631cb129}
2026-06-18T12:18:35,941  INFO Injector:96 
2026-06-18T12:18:35,941  INFO Injector:85 org.matsim.contrib.dvrp.fleet.FleetSpecification @org.matsim.contrib.dvrp.run.DvrpMode(value=drt)
2026-06-18T12:18:35,941  INFO Injector:86   --> provider: org.matsim.contrib.dvrp.fleet.FleetModule$$Lambda/0x0000000020358000@3d20e575[Scopes.SINGLETON]
2026-06-18T12:18:35,941  INFO Injector:87   --> source: org.matsim.core.modal.AbstractModalModule.bindModal(AbstractModalModule.java:59)
2026-06-18T12:18:35,941  INFO Injector:89   --> scope: eager singleton
2026-06-18T12:18:35,941  INFO Injector:94   ==full==> ProviderInstanceBinding{key=Key[type=org.matsim.contrib.dvrp.fleet.FleetSpecification, annotation=@org.matsim.contrib.dvrp.run.DvrpMode(value=drt)], source=org.matsim.core.modal.AbstractModalModule.bindModal(AbstractModalModule.java:59), scope=eager singleton, provider=org.matsim.contrib.dvrp.fleet.FleetModule$$Lambda/0x0000000020358000@3d20e575}
2026-06-18T12:18:35,941  INFO Injector:96 
2026-06-18T12:18:35,941  INFO Injector:85 org.matsim.core.mobsim.qsim.AbstractQSimModule @com.google.inject.internal.Element(setName=,uniqueId=166, type=MULTIBINDER, keyType=)
2026-06-18T12:18:35,941  INFO Injector:86   --> provider: ConstantFactory{value=org.matsim.contrib.dvrp.fleet.FleetModule$2@3d64c581}[Scopes.SINGLETON]
2026-06-18T12:18:35,941  INFO Injector:87   --> source: org.matsim.contrib.dvrp.fleet.FleetModule.install(FleetModule.java:92)
2026-06-18T12:18:35,941  INFO Injector:89   --> scope: eager singleton
2026-06-18T12:18:35,941  INFO Injector:94   ==full==> InstanceBinding{key=Key[type=org.matsim.core.mobsim.qsim.AbstractQSimModule, annotation=@com.google.inject.internal.Element(setName=,uniqueId=166, type=MULTIBINDER, keyType=)], source=org.matsim.contrib.dvrp.fleet.FleetModule.install(FleetModule.java:92), instance=org.matsim.contrib.dvrp.fleet.FleetModule$2@3d64c581}
2026-06-18T12:18:35,941  INFO Injector:96 
2026-06-18T12:18:35,941  INFO Injector:85 org.matsim.contrib.dvrp.fleet.FleetControlerListener @org.matsim.contrib.dvrp.run.DvrpMode(value=drt)
2026-06-18T12:18:35,941  INFO Injector:86   --> provider: org.matsim.core.modal.ModalProviders$1@75d982d3[Scopes.SINGLETON]
2026-06-18T12:18:35,941  INFO Injector:87   --> source: org.matsim.core.modal.AbstractModalModule.bindModal(AbstractModalModule.java:59)
2026-06-18T12:18:35,941  INFO Injector:89   --> scope: Scopes.SINGLETON
2026-06-18T12:18:35,941  INFO Injector:94   ==full==> ProviderInstanceBinding{key=Key[type=org.matsim.contrib.dvrp.fleet.FleetControlerListener, annotation=@org.matsim.contrib.dvrp.run.DvrpMode(value=drt)], source=org.matsim.core.modal.AbstractModalModule.bindModal(AbstractModalModule.java:59), scope=Scopes.SINGLETON, provider=org.matsim.core.modal.ModalProviders$1@75d982d3}
2026-06-18T12:18:35,941  INFO Injector:96 
2026-06-18T12:18:35,957  INFO Injector:85 org.matsim.core.controler.listener.ControlerListener @com.google.inject.internal.Element(setName=,uniqueId=167, type=MULTIBINDER, keyType=)
2026-06-18T12:18:35,957  INFO Injector:86   --> provider: FactoryProxy{key=Key[type=org.matsim.core.controler.listener.ControlerListener, annotation=@com.google.inject.internal.Element(setName=,uniqueId=167, type=MULTIBINDER, keyType=)], provider=org.matsim.core.modal.ModalProviders$1@75d982d3[Scopes.SINGLETON]}
2026-06-18T12:18:35,957  INFO Injector:87   --> source: org.matsim.contrib.dvrp.fleet.FleetModule.install(FleetModule.java:111)
2026-06-18T12:18:35,957  INFO Injector:89   --> scope: Scopes.NO_SCOPE
2026-06-18T12:18:35,957  INFO Injector:92   --> target: Key[type=org.matsim.contrib.dvrp.fleet.FleetControlerListener, annotation=@org.matsim.contrib.dvrp.run.DvrpMode(value=drt)]
2026-06-18T12:18:35,957  INFO Injector:94   ==full==> LinkedKeyBinding{key=Key[type=org.matsim.core.controler.listener.ControlerListener, annotation=@com.google.inject.internal.Element(setName=,uniqueId=167, type=MULTIBINDER, keyType=)], source=org.matsim.contrib.dvrp.fleet.FleetModule.install(FleetModule.java:111), scope=Scopes.NO_SCOPE, target=Key[type=org.matsim.contrib.dvrp.fleet.FleetControlerListener, annotation=@org.matsim.contrib.dvrp.run.DvrpMode(value=drt)]}
2026-06-18T12:18:35,957  INFO Injector:96 
2026-06-18T12:18:35,957  INFO Injector:85 org.matsim.vehicles.VehicleType @org.matsim.contrib.dvrp.run.DvrpMode(value=drt)
2026-06-18T12:18:35,957  INFO Injector:86   --> provider: ConstantFactory{value=org.matsim.vehicles.VehicleType@3252747e}[Scopes.SINGLETON]
2026-06-18T12:18:35,957  INFO Injector:87   --> source: org.matsim.core.modal.AbstractModalModule.bindModal(AbstractModalModule.java:59)
2026-06-18T12:18:35,957  INFO Injector:89   --> scope: eager singleton
2026-06-18T12:18:35,957  INFO Injector:94   ==full==> InstanceBinding{key=Key[type=org.matsim.vehicles.VehicleType, annotation=@org.matsim.contrib.dvrp.run.DvrpMode(value=drt)], source=org.matsim.core.modal.AbstractModalModule.bindModal(AbstractModalModule.java:59), instance=org.matsim.vehicles.VehicleType@3252747e}
2026-06-18T12:18:35,957  INFO Injector:96 
2026-06-18T12:18:35,957  INFO Injector:85 org.matsim.contrib.drt.analysis.zonal.DrtZonalSystem @org.matsim.contrib.dvrp.run.DvrpMode(value=drt)
2026-06-18T12:18:35,957  INFO Injector:86   --> provider: org.matsim.core.modal.ModalProviders$1@4f89331f[Scopes.SINGLETON]
2026-06-18T12:18:35,957  INFO Injector:87   --> source: org.matsim.core.modal.AbstractModalModule.bindModal(AbstractModalModule.java:59)
2026-06-18T12:18:35,957  INFO Injector:89   --> scope: eager singleton
2026-06-18T12:18:35,957  INFO Injector:94   ==full==> ProviderInstanceBinding{key=Key[type=org.matsim.contrib.drt.analysis.zonal.DrtZonalSystem, annotation=@org.matsim.contrib.dvrp.run.DvrpMode(value=drt)], source=org.matsim.core.modal.AbstractModalModule.bindModal(AbstractModalModule.java:59), scope=eager singleton, provider=org.matsim.core.modal.ModalProviders$1@4f89331f}
2026-06-18T12:18:35,957  INFO Injector:96 
2026-06-18T12:18:35,957  INFO Injector:85 org.matsim.contrib.drt.analysis.zonal.DrtZoneTargetLinkSelector @org.matsim.contrib.dvrp.run.DvrpMode(value=drt)
2026-06-18T12:18:35,957  INFO Injector:86   --> provider: org.matsim.core.modal.ModalProviders$1@618ff5c2[Scopes.SINGLETON]
2026-06-18T12:18:35,957  INFO Injector:87   --> source: org.matsim.core.modal.AbstractModalModule.bindModal(AbstractModalModule.java:59)
2026-06-18T12:18:35,957  INFO Injector:89   --> scope: eager singleton
2026-06-18T12:18:35,957  INFO Injector:94   ==full==> ProviderInstanceBinding{key=Key[type=org.matsim.contrib.drt.analysis.zonal.DrtZoneTargetLinkSelector, annotation=@org.matsim.contrib.dvrp.run.DvrpMode(value=drt)], source=org.matsim.core.modal.AbstractModalModule.bindModal(AbstractModalModule.java:59), scope=eager singleton, provider=org.matsim.core.modal.ModalProviders$1@618ff5c2}
2026-06-18T12:18:35,957  INFO Injector:96 
2026-06-18T12:18:35,957  INFO Injector:85 org.matsim.contrib.drt.analysis.zonal.ZonalIdleVehicleXYVisualiser @org.matsim.contrib.dvrp.run.DvrpMode(value=drt)
2026-06-18T12:18:35,957  INFO Injector:86   --> provider: org.matsim.core.modal.ModalProviders$1@16727bf0[Scopes.SINGLETON]
2026-06-18T12:18:35,957  INFO Injector:87   --> source: org.matsim.core.modal.AbstractModalModule.bindModal(AbstractModalModule.java:59)
2026-06-18T12:18:35,957  INFO Injector:89   --> scope: eager singleton
2026-06-18T12:18:35,957  INFO Injector:94   ==full==> ProviderInstanceBinding{key=Key[type=org.matsim.contrib.drt.analysis.zonal.ZonalIdleVehicleXYVisualiser, annotation=@org.matsim.contrib.dvrp.run.DvrpMode(value=drt)], source=org.matsim.core.modal.AbstractModalModule.bindModal(AbstractModalModule.java:59), scope=eager singleton, provider=org.matsim.core.modal.ModalProviders$1@16727bf0}
2026-06-18T12:18:35,957  INFO Injector:96 
2026-06-18T12:18:35,957  INFO Injector:85 org.matsim.core.controler.listener.ControlerListener @com.google.inject.internal.Element(setName=,uniqueId=168, type=MULTIBINDER, keyType=)
2026-06-18T12:18:35,957  INFO Injector:86   --> provider: FactoryProxy{key=Key[type=org.matsim.core.controler.listener.ControlerListener, annotation=@com.google.inject.internal.Element(setName=,uniqueId=168, type=MULTIBINDER, keyType=)], provider=org.matsim.core.modal.ModalProviders$1@16727bf0[Scopes.SINGLETON]}
2026-06-18T12:18:35,957  INFO Injector:87   --> source: org.matsim.contrib.drt.analysis.zonal.DrtModeZonalSystemModule.install(DrtModeZonalSystemModule.java:97)
2026-06-18T12:18:35,957  INFO Injector:89   --> scope: Scopes.NO_SCOPE
2026-06-18T12:18:35,957  INFO Injector:92   --> target: Key[type=org.matsim.contrib.drt.analysis.zonal.ZonalIdleVehicleXYVisualiser, annotation=@org.matsim.contrib.dvrp.run.DvrpMode(value=drt)]
2026-06-18T12:18:35,973  INFO Injector:94   ==full==> LinkedKeyBinding{key=Key[type=org.matsim.core.controler.listener.ControlerListener, annotation=@com.google.inject.internal.Element(setName=,uniqueId=168, type=MULTIBINDER, keyType=)], source=org.matsim.contrib.drt.analysis.zonal.DrtModeZonalSystemModule.install(DrtModeZonalSystemModule.java:97), scope=Scopes.NO_SCOPE, target=Key[type=org.matsim.contrib.drt.analysis.zonal.ZonalIdleVehicleXYVisualiser, annotation=@org.matsim.contrib.dvrp.run.DvrpMode(value=drt)]}
2026-06-18T12:18:35,975  INFO Injector:96 
2026-06-18T12:18:35,975  INFO Injector:85 org.matsim.core.events.handler.EventHandler @com.google.inject.internal.Element(setName=,uniqueId=169, type=MULTIBINDER, keyType=)
2026-06-18T12:18:35,975  INFO Injector:86   --> provider: FactoryProxy{key=Key[type=org.matsim.core.events.handler.EventHandler, annotation=@com.google.inject.internal.Element(setName=,uniqueId=169, type=MULTIBINDER, keyType=)], provider=org.matsim.core.modal.ModalProviders$1@16727bf0[Scopes.SINGLETON]}
2026-06-18T12:18:35,975  INFO Injector:87   --> source: org.matsim.contrib.drt.analysis.zonal.DrtModeZonalSystemModule.install(DrtModeZonalSystemModule.java:98)
2026-06-18T12:18:35,975  INFO Injector:89   --> scope: Scopes.NO_SCOPE
2026-06-18T12:18:35,975  INFO Injector:92   --> target: Key[type=org.matsim.contrib.drt.analysis.zonal.ZonalIdleVehicleXYVisualiser, annotation=@org.matsim.contrib.dvrp.run.DvrpMode(value=drt)]
2026-06-18T12:18:35,982  INFO Injector:94   ==full==> LinkedKeyBinding{key=Key[type=org.matsim.core.events.handler.EventHandler, annotation=@com.google.inject.internal.Element(setName=,uniqueId=169, type=MULTIBINDER, keyType=)], source=org.matsim.contrib.drt.analysis.zonal.DrtModeZonalSystemModule.install(DrtModeZonalSystemModule.java:98), scope=Scopes.NO_SCOPE, target=Key[type=org.matsim.contrib.drt.analysis.zonal.ZonalIdleVehicleXYVisualiser, annotation=@org.matsim.contrib.dvrp.run.DvrpMode(value=drt)]}
2026-06-18T12:18:35,982  INFO Injector:96 
2026-06-18T12:18:35,982  INFO Injector:85 org.matsim.contrib.drt.analysis.zonal.DrtZonalWaitTimesAnalyzer @org.matsim.contrib.dvrp.run.DvrpMode(value=drt)
2026-06-18T12:18:35,984  INFO Injector:86   --> provider: org.matsim.core.modal.ModalProviders$1@2f84acf7[Scopes.SINGLETON]
2026-06-18T12:18:35,984  INFO Injector:87   --> source: org.matsim.core.modal.AbstractModalModule.bindModal(AbstractModalModule.java:59)
2026-06-18T12:18:35,984  INFO Injector:89   --> scope: eager singleton
2026-06-18T12:18:35,984  INFO Injector:94   ==full==> ProviderInstanceBinding{key=Key[type=org.matsim.contrib.drt.analysis.zonal.DrtZonalWaitTimesAnalyzer, annotation=@org.matsim.contrib.dvrp.run.DvrpMode(value=drt)], source=org.matsim.core.modal.AbstractModalModule.bindModal(AbstractModalModule.java:59), scope=eager singleton, provider=org.matsim.core.modal.ModalProviders$1@2f84acf7}
2026-06-18T12:18:35,984  INFO Injector:96 
2026-06-18T12:18:35,984  INFO Injector:85 org.matsim.core.controler.listener.ControlerListener @com.google.inject.internal.Element(setName=,uniqueId=170, type=MULTIBINDER, keyType=)
2026-06-18T12:18:35,984  INFO Injector:86   --> provider: FactoryProxy{key=Key[type=org.matsim.core.controler.listener.ControlerListener, annotation=@com.google.inject.internal.Element(setName=,uniqueId=170, type=MULTIBINDER, keyType=)], provider=org.matsim.core.modal.ModalProviders$1@2f84acf7[Scopes.SINGLETON]}
2026-06-18T12:18:35,984  INFO Injector:87   --> source: org.matsim.contrib.drt.analysis.zonal.DrtModeZonalSystemModule.install(DrtModeZonalSystemModule.java:103)
2026-06-18T12:18:35,984  INFO Injector:89   --> scope: Scopes.NO_SCOPE
2026-06-18T12:18:35,984  INFO Injector:92   --> target: Key[type=org.matsim.contrib.drt.analysis.zonal.DrtZonalWaitTimesAnalyzer, annotation=@org.matsim.contrib.dvrp.run.DvrpMode(value=drt)]
2026-06-18T12:18:35,984  INFO Injector:94   ==full==> LinkedKeyBinding{key=Key[type=org.matsim.core.controler.listener.ControlerListener, annotation=@com.google.inject.internal.Element(setName=,uniqueId=170, type=MULTIBINDER, keyType=)], source=org.matsim.contrib.drt.analysis.zonal.DrtModeZonalSystemModule.install(DrtModeZonalSystemModule.java:103), scope=Scopes.NO_SCOPE, target=Key[type=org.matsim.contrib.drt.analysis.zonal.DrtZonalWaitTimesAnalyzer, annotation=@org.matsim.contrib.dvrp.run.DvrpMode(value=drt)]}
2026-06-18T12:18:35,984  INFO Injector:96 
2026-06-18T12:18:35,984  INFO Injector:85 org.matsim.core.mobsim.qsim.AbstractQSimModule @com.google.inject.internal.Element(setName=,uniqueId=171, type=MULTIBINDER, keyType=)
2026-06-18T12:18:35,991  INFO Injector:86   --> provider: ConstantFactory{value=org.matsim.contrib.drt.optimizer.rebalancing.mincostflow.DrtModeMinCostFlowRebalancingModule$1@5ec5ea63}[Scopes.SINGLETON]
2026-06-18T12:18:35,991  INFO Injector:87   --> source: org.matsim.contrib.drt.optimizer.rebalancing.mincostflow.DrtModeMinCostFlowRebalancingModule.install(DrtModeMinCostFlowRebalancingModule.java:57)
2026-06-18T12:18:35,991  INFO Injector:89   --> scope: eager singleton
2026-06-18T12:18:35,991  INFO Injector:94   ==full==> InstanceBinding{key=Key[type=org.matsim.core.mobsim.qsim.AbstractQSimModule, annotation=@com.google.inject.internal.Element(setName=,uniqueId=171, type=MULTIBINDER, keyType=)], source=org.matsim.contrib.drt.optimizer.rebalancing.mincostflow.DrtModeMinCostFlowRebalancingModule.install(DrtModeMinCostFlowRebalancingModule.java:57), instance=org.matsim.contrib.drt.optimizer.rebalancing.mincostflow.DrtModeMinCostFlowRebalancingModule$1@5ec5ea63}
2026-06-18T12:18:35,991  INFO Injector:96 
2026-06-18T12:18:35,991  INFO Injector:85 org.matsim.contrib.drt.optimizer.rebalancing.demandestimator.PreviousIterationDRTDemandEstimator @org.matsim.contrib.dvrp.run.DvrpMode(value=drt)
2026-06-18T12:18:35,991  INFO Injector:86   --> provider: org.matsim.core.modal.ModalProviders$1@291373d3[Scopes.SINGLETON]
2026-06-18T12:18:35,991  INFO Injector:87   --> source: org.matsim.core.modal.AbstractModalModule.bindModal(AbstractModalModule.java:59)
2026-06-18T12:18:35,998  INFO Injector:89   --> scope: eager singleton
2026-06-18T12:18:35,999  INFO Injector:94   ==full==> ProviderInstanceBinding{key=Key[type=org.matsim.contrib.drt.optimizer.rebalancing.demandestimator.PreviousIterationDRTDemandEstimator, annotation=@org.matsim.contrib.dvrp.run.DvrpMode(value=drt)], source=org.matsim.core.modal.AbstractModalModule.bindModal(AbstractModalModule.java:59), scope=eager singleton, provider=org.matsim.core.modal.ModalProviders$1@291373d3}
2026-06-18T12:18:35,999  INFO Injector:96 
2026-06-18T12:18:35,999  INFO Injector:85 org.matsim.contrib.drt.optimizer.rebalancing.demandestimator.ZonalDemandEstimator @org.matsim.contrib.dvrp.run.DvrpMode(value=drt)
2026-06-18T12:18:35,999  INFO Injector:86   --> provider: FactoryProxy{key=Key[type=org.matsim.contrib.drt.optimizer.rebalancing.demandestimator.ZonalDemandEstimator, annotation=@org.matsim.contrib.dvrp.run.DvrpMode(value=drt)], provider=org.matsim.core.modal.ModalProviders$1@291373d3[Scopes.SINGLETON]}
2026-06-18T12:18:35,999  INFO Injector:87   --> source: org.matsim.core.modal.AbstractModalModule.bindModal(AbstractModalModule.java:59)
2026-06-18T12:18:35,999  INFO Injector:89   --> scope: Scopes.NO_SCOPE
2026-06-18T12:18:35,999  INFO Injector:92   --> target: Key[type=org.matsim.contrib.drt.optimizer.rebalancing.demandestimator.PreviousIterationDRTDemandEstimator, annotation=@org.matsim.contrib.dvrp.run.DvrpMode(value=drt)]
2026-06-18T12:18:35,999  INFO Injector:94   ==full==> LinkedKeyBinding{key=Key[type=org.matsim.contrib.drt.optimizer.rebalancing.demandestimator.ZonalDemandEstimator, annotation=@org.matsim.contrib.dvrp.run.DvrpMode(value=drt)], source=org.matsim.core.modal.AbstractModalModule.bindModal(AbstractModalModule.java:59), scope=Scopes.NO_SCOPE, target=Key[type=org.matsim.contrib.drt.optimizer.rebalancing.demandestimator.PreviousIterationDRTDemandEstimator, annotation=@org.matsim.contrib.dvrp.run.DvrpMode(value=drt)]}
2026-06-18T12:18:35,999  INFO Injector:96 
2026-06-18T12:18:35,999  INFO Injector:85 org.matsim.core.events.handler.EventHandler @com.google.inject.internal.Element(setName=,uniqueId=172, type=MULTIBINDER, keyType=)
2026-06-18T12:18:35,999  INFO Injector:86   --> provider: FactoryProxy{key=Key[type=org.matsim.core.events.handler.EventHandler, annotation=@com.google.inject.internal.Element(setName=,uniqueId=172, type=MULTIBINDER, keyType=)], provider=org.matsim.core.modal.ModalProviders$1@291373d3[Scopes.SINGLETON]}
2026-06-18T12:18:35,999  INFO Injector:87   --> source: org.matsim.contrib.drt.optimizer.rebalancing.mincostflow.DrtModeMinCostFlowRebalancingModule.install(DrtModeMinCostFlowRebalancingModule.java:107)
2026-06-18T12:18:35,999  INFO Injector:89   --> scope: Scopes.NO_SCOPE
2026-06-18T12:18:35,999  INFO Injector:92   --> target: Key[type=org.matsim.contrib.drt.optimizer.rebalancing.demandestimator.PreviousIterationDRTDemandEstimator, annotation=@org.matsim.contrib.dvrp.run.DvrpMode(value=drt)]
2026-06-18T12:18:35,999  INFO Injector:94   ==full==> LinkedKeyBinding{key=Key[type=org.matsim.core.events.handler.EventHandler, annotation=@com.google.inject.internal.Element(setName=,uniqueId=172, type=MULTIBINDER, keyType=)], source=org.matsim.contrib.drt.optimizer.rebalancing.mincostflow.DrtModeMinCostFlowRebalancingModule.install(DrtModeMinCostFlowRebalancingModule.java:107), scope=Scopes.NO_SCOPE, target=Key[type=org.matsim.contrib.drt.optimizer.rebalancing.demandestimator.PreviousIterationDRTDemandEstimator, annotation=@org.matsim.contrib.dvrp.run.DvrpMode(value=drt)]}
2026-06-18T12:18:36,007  INFO Injector:96 
2026-06-18T12:18:36,007  INFO Injector:85 org.matsim.core.router.RoutingModule @com.google.inject.name.Named("drt")
2026-06-18T12:18:36,007  INFO Injector:86   --> provider: org.matsim.contrib.dvrp.router.DvrpRoutingModuleProvider@372ca2d6
2026-06-18T12:18:36,009  INFO Injector:87   --> source: org.matsim.contrib.drt.run.DrtModeRoutingModule.install(DrtModeRoutingModule.java:79)
2026-06-18T12:18:36,009  INFO Injector:89   --> scope: Scopes.NO_SCOPE
2026-06-18T12:18:36,009  INFO Injector:94   ==full==> ProviderInstanceBinding{key=Key[type=org.matsim.core.router.RoutingModule, annotation=@com.google.inject.name.Named("drt")], source=org.matsim.contrib.drt.run.DrtModeRoutingModule.install(DrtModeRoutingModule.java:79), scope=Scopes.NO_SCOPE, provider=org.matsim.contrib.dvrp.router.DvrpRoutingModuleProvider@372ca2d6}
2026-06-18T12:18:36,015  INFO Injector:96 
2026-06-18T12:18:36,015  INFO Injector:85 org.matsim.core.router.RoutingModule @com.google.inject.internal.Element(setName=@org.matsim.contrib.dvrp.run.DvrpMode(value=drt),uniqueId=173, type=MAPBINDER, keyType=org.matsim.contrib.dvrp.router.DvrpRoutingModuleProvider$Stage)
2026-06-18T12:18:36,015  INFO Injector:86   --> provider: org.matsim.contrib.dvrp.router.DvrpModeRoutingModule$DefaultMainLegRouterProvider@38ed139b
2026-06-18T12:18:36,015  INFO Injector:87   --> source: org.matsim.contrib.drt.run.DrtModeRoutingModule.install(DrtModeRoutingModule.java:80)
2026-06-18T12:18:36,015  INFO Injector:89   --> scope: Scopes.NO_SCOPE
2026-06-18T12:18:36,015  INFO Injector:94   ==full==> ProviderInstanceBinding{key=Key[type=org.matsim.core.router.RoutingModule, annotation=@com.google.inject.internal.Element(setName=@org.matsim.contrib.dvrp.run.DvrpMode(value=drt),uniqueId=173, type=MAPBINDER, keyType=org.matsim.contrib.dvrp.router.DvrpRoutingModuleProvider$Stage)], source=org.matsim.contrib.drt.run.DrtModeRoutingModule.install(DrtModeRoutingModule.java:80), scope=Scopes.NO_SCOPE, provider=org.matsim.contrib.dvrp.router.DvrpModeRoutingModule$DefaultMainLegRouterProvider@38ed139b}
2026-06-18T12:18:36,015  INFO Injector:96 
2026-06-18T12:18:36,015  INFO Injector:85 org.matsim.contrib.dvrp.router.DefaultMainLegRouter$RouteCreator @org.matsim.contrib.dvrp.run.DvrpMode(value=drt)
2026-06-18T12:18:36,015  INFO Injector:86   --> provider: org.matsim.contrib.drt.run.DrtModeRoutingModule$DrtRouteCreatorProvider@a5272be
2026-06-18T12:18:36,021  INFO Injector:87   --> source: org.matsim.core.modal.AbstractModalModule.bindModal(AbstractModalModule.java:59)
2026-06-18T12:18:36,021  INFO Injector:89   --> scope: Scopes.NO_SCOPE
2026-06-18T12:18:36,021  INFO Injector:94   ==full==> ProviderInstanceBinding{key=Key[type=org.matsim.contrib.dvrp.router.DefaultMainLegRouter$RouteCreator, annotation=@org.matsim.contrib.dvrp.run.DvrpMode(value=drt)], source=org.matsim.core.modal.AbstractModalModule.bindModal(AbstractModalModule.java:59), scope=Scopes.NO_SCOPE, provider=org.matsim.contrib.drt.run.DrtModeRoutingModule$DrtRouteCreatorProvider@a5272be}
2026-06-18T12:18:36,021  INFO Injector:96 
2026-06-18T12:18:36,023  INFO Injector:85 org.matsim.contrib.drt.routing.DrtStopNetwork @org.matsim.contrib.dvrp.run.DvrpMode(value=drt)
2026-06-18T12:18:36,024  INFO Injector:86   --> provider: org.matsim.contrib.drt.run.DrtModeRoutingModule$DrtStopNetworkProvider@58ba5b30[Scopes.SINGLETON]
2026-06-18T12:18:36,024  INFO Injector:87   --> source: org.matsim.core.modal.AbstractModalModule.bindModal(AbstractModalModule.java:59)
2026-06-18T12:18:36,024  INFO Injector:89   --> scope: eager singleton
2026-06-18T12:18:36,025  INFO Injector:94   ==full==> ProviderInstanceBinding{key=Key[type=org.matsim.contrib.drt.routing.DrtStopNetwork, annotation=@org.matsim.contrib.dvrp.run.DvrpMode(value=drt)], source=org.matsim.core.modal.AbstractModalModule.bindModal(AbstractModalModule.java:59), scope=eager singleton, provider=org.matsim.contrib.drt.run.DrtModeRoutingModule$DrtStopNetworkProvider@58ba5b30}
2026-06-18T12:18:36,025  INFO Injector:96 
2026-06-18T12:18:36,025  INFO Injector:85 org.matsim.contrib.dvrp.router.DvrpRoutingModule$AccessEgressFacilityFinder @org.matsim.contrib.dvrp.run.DvrpMode(value=drt)
2026-06-18T12:18:36,025  INFO Injector:86   --> provider: org.matsim.core.modal.ModalProviders$1@4dba773d[Scopes.SINGLETON]
2026-06-18T12:18:36,025  INFO Injector:87   --> source: org.matsim.core.modal.AbstractModalModule.bindModal(AbstractModalModule.java:59)
2026-06-18T12:18:36,025  INFO Injector:89   --> scope: eager singleton
2026-06-18T12:18:36,025  INFO Injector:94   ==full==> ProviderInstanceBinding{key=Key[type=org.matsim.contrib.dvrp.router.DvrpRoutingModule$AccessEgressFacilityFinder, annotation=@org.matsim.contrib.dvrp.run.DvrpMode(value=drt)], source=org.matsim.core.modal.AbstractModalModule.bindModal(AbstractModalModule.java:59), scope=eager singleton, provider=org.matsim.core.modal.ModalProviders$1@4dba773d}
2026-06-18T12:18:36,025  INFO Injector:96 
2026-06-18T12:18:36,025  INFO Injector:85 org.matsim.contrib.drt.routing.DrtRouteUpdater @org.matsim.contrib.dvrp.run.DvrpMode(value=drt)
2026-06-18T12:18:36,025  INFO Injector:86   --> provider: org.matsim.contrib.drt.run.DrtModeRoutingModule$1@1d9bd4da[Scopes.SINGLETON]
2026-06-18T12:18:36,025  INFO Injector:87   --> source: org.matsim.core.modal.AbstractModalModule.bindModal(AbstractModalModule.java:59)
2026-06-18T12:18:36,025  INFO Injector:89   --> scope: eager singleton
2026-06-18T12:18:36,025  INFO Injector:94   ==full==> ProviderInstanceBinding{key=Key[type=org.matsim.contrib.drt.routing.DrtRouteUpdater, annotation=@org.matsim.contrib.dvrp.run.DvrpMode(value=drt)], source=org.matsim.core.modal.AbstractModalModule.bindModal(AbstractModalModule.java:59), scope=eager singleton, provider=org.matsim.contrib.drt.run.DrtModeRoutingModule$1@1d9bd4da}
2026-06-18T12:18:36,025  INFO Injector:96 
2026-06-18T12:18:36,025  INFO Injector:85 org.matsim.core.controler.listener.ControlerListener @com.google.inject.internal.Element(setName=,uniqueId=175, type=MULTIBINDER, keyType=)
2026-06-18T12:18:36,025  INFO Injector:86   --> provider: FactoryProxy{key=Key[type=org.matsim.core.controler.listener.ControlerListener, annotation=@com.google.inject.internal.Element(setName=,uniqueId=175, type=MULTIBINDER, keyType=)], provider=org.matsim.contrib.drt.run.DrtModeRoutingModule$1@1d9bd4da[Scopes.SINGLETON]}
2026-06-18T12:18:36,025  INFO Injector:87   --> source: org.matsim.contrib.drt.run.DrtModeRoutingModule.install(DrtModeRoutingModule.java:115)
2026-06-18T12:18:36,025  INFO Injector:89   --> scope: Scopes.NO_SCOPE
2026-06-18T12:18:36,032  INFO Injector:92   --> target: Key[type=org.matsim.contrib.drt.routing.DrtRouteUpdater, annotation=@org.matsim.contrib.dvrp.run.DvrpMode(value=drt)]
2026-06-18T12:18:36,032  INFO Injector:94   ==full==> LinkedKeyBinding{key=Key[type=org.matsim.core.controler.listener.ControlerListener, annotation=@com.google.inject.internal.Element(setName=,uniqueId=175, type=MULTIBINDER, keyType=)], source=org.matsim.contrib.drt.run.DrtModeRoutingModule.install(DrtModeRoutingModule.java:115), scope=Scopes.NO_SCOPE, target=Key[type=org.matsim.contrib.drt.routing.DrtRouteUpdater, annotation=@org.matsim.contrib.dvrp.run.DvrpMode(value=drt)]}
2026-06-18T12:18:36,033  INFO Injector:96 
2026-06-18T12:18:36,033  INFO Injector:85 org.matsim.contrib.drt.fare.DrtFareHandler @org.matsim.contrib.dvrp.run.DvrpMode(value=drt)
2026-06-18T12:18:36,034  INFO Injector:86   --> provider: ConstantFactory{value=org.matsim.contrib.drt.fare.DrtFareHandler@4c58255}[Scopes.SINGLETON]
2026-06-18T12:18:36,034  INFO Injector:87   --> source: org.matsim.core.modal.AbstractModalModule.bindModal(AbstractModalModule.java:59)
2026-06-18T12:18:36,034  INFO Injector:89   --> scope: eager singleton
2026-06-18T12:18:36,034  INFO Injector:94   ==full==> InstanceBinding{key=Key[type=org.matsim.contrib.drt.fare.DrtFareHandler, annotation=@org.matsim.contrib.dvrp.run.DvrpMode(value=drt)], source=org.matsim.core.modal.AbstractModalModule.bindModal(AbstractModalModule.java:59), instance=org.matsim.contrib.drt.fare.DrtFareHandler@4c58255}
2026-06-18T12:18:36,034  INFO Injector:96 
2026-06-18T12:18:36,034  INFO Injector:85 org.matsim.core.events.handler.EventHandler @com.google.inject.internal.Element(setName=,uniqueId=176, type=MULTIBINDER, keyType=)
2026-06-18T12:18:36,034  INFO Injector:86   --> provider: FactoryProxy{key=Key[type=org.matsim.core.events.handler.EventHandler, annotation=@com.google.inject.internal.Element(setName=,uniqueId=176, type=MULTIBINDER, keyType=)], provider=ConstantFactory{value=org.matsim.contrib.drt.fare.DrtFareHandler@4c58255}[Scopes.SINGLETON]}
2026-06-18T12:18:36,034  INFO Injector:87   --> source: org.matsim.contrib.drt.run.DrtModeModule.install(DrtModeModule.java:74)
2026-06-18T12:18:36,034  INFO Injector:89   --> scope: Scopes.NO_SCOPE
2026-06-18T12:18:36,038  INFO Injector:92   --> target: Key[type=org.matsim.contrib.drt.fare.DrtFareHandler, annotation=@org.matsim.contrib.dvrp.run.DvrpMode(value=drt)]
2026-06-18T12:18:36,038  INFO Injector:94   ==full==> LinkedKeyBinding{key=Key[type=org.matsim.core.events.handler.EventHandler, annotation=@com.google.inject.internal.Element(setName=,uniqueId=176, type=MULTIBINDER, keyType=)], source=org.matsim.contrib.drt.run.DrtModeModule.install(DrtModeModule.java:74), scope=Scopes.NO_SCOPE, target=Key[type=org.matsim.contrib.drt.fare.DrtFareHandler, annotation=@org.matsim.contrib.dvrp.run.DvrpMode(value=drt)]}
2026-06-18T12:18:36,038  INFO Injector:96 
2026-06-18T12:18:36,038  INFO Injector:85 org.matsim.contrib.drt.schedule.StopDurationEstimator @org.matsim.contrib.dvrp.run.DvrpMode(value=drt)
2026-06-18T12:18:36,038  INFO Injector:86   --> provider: ConstantFactory{value=org.matsim.contrib.drt.run.DrtModeModule$$Lambda/0x0000000020362d48@2b4b96a4}[Scopes.SINGLETON]
2026-06-18T12:18:36,038  INFO Injector:87   --> source: org.matsim.core.modal.AbstractModalModule.bindModal(AbstractModalModule.java:59)
2026-06-18T12:18:36,040  INFO Injector:89   --> scope: eager singleton
2026-06-18T12:18:36,040  INFO Injector:94   ==full==> InstanceBinding{key=Key[type=org.matsim.contrib.drt.schedule.StopDurationEstimator, annotation=@org.matsim.contrib.dvrp.run.DvrpMode(value=drt)], source=org.matsim.core.modal.AbstractModalModule.bindModal(AbstractModalModule.java:59), instance=org.matsim.contrib.drt.run.DrtModeModule$$Lambda/0x0000000020362d48@2b4b96a4}
2026-06-18T12:18:36,040  INFO Injector:96 
2026-06-18T12:18:36,040  INFO Injector:85 org.matsim.contrib.drt.optimizer.insertion.IncrementalStopDurationEstimator @org.matsim.contrib.dvrp.run.DvrpMode(value=drt)
2026-06-18T12:18:36,040  INFO Injector:86   --> provider: ConstantFactory{value=org.matsim.contrib.drt.optimizer.insertion.DefaultIncrementalStopDurationEstimator@2dd8ff1d}[Scopes.SINGLETON]
2026-06-18T12:18:36,040  INFO Injector:87   --> source: org.matsim.core.modal.AbstractModalModule.bindModal(AbstractModalModule.java:59)
2026-06-18T12:18:36,040  INFO Injector:89   --> scope: eager singleton
2026-06-18T12:18:36,040  INFO Injector:94   ==full==> InstanceBinding{key=Key[type=org.matsim.contrib.drt.optimizer.insertion.IncrementalStopDurationEstimator, annotation=@org.matsim.contrib.dvrp.run.DvrpMode(value=drt)], source=org.matsim.core.modal.AbstractModalModule.bindModal(AbstractModalModule.java:59), instance=org.matsim.contrib.drt.optimizer.insertion.DefaultIncrementalStopDurationEstimator@2dd8ff1d}
2026-06-18T12:18:36,040  INFO Injector:96 
[...]
2026-06-18T12:18:53,327  INFO EventsManagerImpl:115  event # 65536
2026-06-18T12:18:54,795  INFO AbstractQNetsimEngine:366 SIMULATION (QNetsimEngine) AT 07:00:00 : #links=104 #nodes=20
2026-06-18T12:18:54,827  INFO QSim:566 SIMULATION (NEW QSim) AT 07:00:00 : #Veh=4822 lost=1 simT=25200.0s realT=12s; (s/r): 2100.0
2026-06-18T12:19:00,102  INFO AbstractQNetsimEngine:366 SIMULATION (QNetsimEngine) AT 08:00:00 : #links=92 #nodes=18
2026-06-18T12:19:00,104  INFO QSim:566 SIMULATION (NEW QSim) AT 08:00:00 : #Veh=4822 lost=1 simT=28800.0s realT=17s; (s/r): 1694.1176470588234
2026-06-18T12:19:01,485  INFO EventsManagerImpl:115  event # 262144
2026-06-18T12:19:03,583  INFO AbstractQNetsimEngine:366 SIMULATION (QNetsimEngine) AT 09:00:00 : #links=49 #nodes=7
2026-06-18T12:19:03,616  INFO QSim:566 SIMULATION (NEW QSim) AT 09:00:00 : #Veh=4822 lost=1 simT=32400.0s realT=21s; (s/r): 1542.857142857143
2026-06-18T12:19:05,039  INFO AbstractQNetsimEngine:366 SIMULATION (QNetsimEngine) AT 10:00:00 : #links=31 #nodes=6
2026-06-18T12:19:05,063  INFO QSim:566 SIMULATION (NEW QSim) AT 10:00:00 : #Veh=4815 lost=1 simT=36000.0s realT=22s; (s/r): 1636.3636363636363
2026-06-18T12:19:06,533  INFO AbstractQNetsimEngine:366 SIMULATION (QNetsimEngine) AT 11:00:00 : #links=29 #nodes=1
2026-06-18T12:19:06,565  INFO QSim:566 SIMULATION (NEW QSim) AT 11:00:00 : #Veh=4746 lost=1 simT=39600.0s realT=24s; (s/r): 1650.0
2026-06-18T12:19:08,595  INFO AbstractQNetsimEngine:366 SIMULATION (QNetsimEngine) AT 12:00:00 : #links=26 #nodes=7
2026-06-18T12:19:08,635  INFO QSim:566 SIMULATION (NEW QSim) AT 12:00:00 : #Veh=4606 lost=1 simT=43200.0s realT=26s; (s/r): 1661.5384615384614
2026-06-18T12:19:10,029  INFO AbstractQNetsimEngine:366 SIMULATION (QNetsimEngine) AT 13:00:00 : #links=15 #nodes=2
2026-06-18T12:19:10,059  INFO QSim:566 SIMULATION (NEW QSim) AT 13:00:00 : #Veh=4456 lost=1 simT=46800.0s realT=27s; (s/r): 1733.3333333333333
2026-06-18T12:19:11,182  INFO AbstractQNetsimEngine:366 SIMULATION (QNetsimEngine) AT 14:00:00 : #links=20 #nodes=2
2026-06-18T12:19:11,246  INFO QSim:566 SIMULATION (NEW QSim) AT 14:00:00 : #Veh=4236 lost=1 simT=50400.0s realT=28s; (s/r): 1800.0
2026-06-18T12:19:13,787  INFO AbstractQNetsimEngine:366 SIMULATION (QNetsimEngine) AT 15:00:00 : #links=64 #nodes=13
2026-06-18T12:19:13,788  INFO QSim:566 SIMULATION (NEW QSim) AT 15:00:00 : #Veh=3869 lost=1 simT=54000.0s realT=31s; (s/r): 1741.9354838709678
2026-06-18T12:19:18,949  INFO AbstractQNetsimEngine:366 SIMULATION (QNetsimEngine) AT 16:00:00 : #links=103 #nodes=17
2026-06-18T12:19:18,982  INFO QSim:566 SIMULATION (NEW QSim) AT 16:00:00 : #Veh=2889 lost=1 simT=57600.0s realT=36s; (s/r): 1600.0
2026-06-18T12:19:24,074  INFO AbstractQNetsimEngine:366 SIMULATION (QNetsimEngine) AT 17:00:00 : #links=77 #nodes=16
2026-06-18T12:19:24,105  INFO QSim:566 SIMULATION (NEW QSim) AT 17:00:00 : #Veh=1755 lost=1 simT=61200.0s realT=41s; (s/r): 1492.6829268292684
2026-06-18T12:19:26,030  INFO AbstractQNetsimEngine:366 SIMULATION (QNetsimEngine) AT 18:00:00 : #links=27 #nodes=4
2026-06-18T12:19:26,033  INFO QSim:566 SIMULATION (NEW QSim) AT 18:00:00 : #Veh=1038 lost=1 simT=64800.0s realT=43s; (s/r): 1506.9767441860465
2026-06-18T12:19:27,308  INFO AbstractQNetsimEngine:366 SIMULATION (QNetsimEngine) AT 19:00:00 : #links=22 #nodes=3
2026-06-18T12:19:27,339  INFO QSim:566 SIMULATION (NEW QSim) AT 19:00:00 : #Veh=701 lost=1 simT=68400.0s realT=45s; (s/r): 1520.0
2026-06-18T12:19:28,154  INFO AbstractQNetsimEngine:366 SIMULATION (QNetsimEngine) AT 20:00:00 : #links=15 #nodes=1
2026-06-18T12:19:28,184  INFO QSim:566 SIMULATION (NEW QSim) AT 20:00:00 : #Veh=499 lost=1 simT=72000.0s realT=45s; (s/r): 1600.0
2026-06-18T12:19:28,816  INFO AbstractQNetsimEngine:366 SIMULATION (QNetsimEngine) AT 21:00:00 : #links=8 #nodes=3
2026-06-18T12:19:28,848  INFO QSim:566 SIMULATION (NEW QSim) AT 21:00:00 : #Veh=384 lost=1 simT=75600.0s realT=46s; (s/r): 1643.4782608695652
2026-06-18T12:19:29,371  INFO AbstractQNetsimEngine:366 SIMULATION (QNetsimEngine) AT 22:00:00 : #links=4 #nodes=1
2026-06-18T12:19:29,403  INFO QSim:566 SIMULATION (NEW QSim) AT 22:00:00 : #Veh=316 lost=1 simT=79200.0s realT=47s; (s/r): 1685.1063829787233
2026-06-18T12:19:29,863  INFO AbstractQNetsimEngine:366 SIMULATION (QNetsimEngine) AT 23:00:00 : #links=0 #nodes=0
2026-06-18T12:19:29,895  INFO QSim:566 SIMULATION (NEW QSim) AT 23:00:00 : #Veh=300 lost=1 simT=82800.0s realT=47s; (s/r): 1761.7021276595744
2026-06-18T12:19:30,181  INFO AbstractQNetsimEngine:366 SIMULATION (QNetsimEngine) AT 24:00:00 : #links=0 #nodes=0
2026-06-18T12:19:30,222  INFO QSim:566 SIMULATION (NEW QSim) AT 24:00:00 : #Veh=0 lost=1 simT=86400.0s realT=47s; (s/r): 1838.2978723404256
2026-06-18T12:19:30,353  INFO AbstractController$9:235 ### ITERATION 0 fires after mobsim event
2026-06-18T12:19:30,354  INFO Gbl:192 Thread performance: Thread=class org.matsim.core.events.SimStepParallelEventsManagerImpl$ProcessEventsRunnable0  cpu-time=9.953125sec
2026-06-18T12:19:30,403  INFO ControlerListenerManagerImpl:249 calling notifyAfterMobsim on org.matsim.analysis.LegTimesControlerListener
2026-06-18T12:19:30,412  INFO LegTimesControlerListener:51 [0] average trip (probably: leg) duration is: 421 seconds = 00:07:01
2026-06-18T12:19:30,412  INFO ControlerListenerManagerImpl:249 calling notifyAfterMobsim on org.matsim.core.events.MobsimScopeEventHandling
2026-06-18T12:19:30,415  INFO EventsManagerImpl:159 removing Event-Handler: org.matsim.contrib.dvrp.passenger.DefaultPassengerEngine
2026-06-18T12:19:30,416  INFO EventsManagerImpl:159 removing Event-Handler: org.matsim.contrib.dvrp.passenger.DefaultPassengerEngine
2026-06-18T12:19:30,419  INFO ControlerListenerManagerImpl:249 calling notifyAfterMobsim on org.matsim.contrib.dvrp.trafficmonitoring.DvrpOfflineTravelTimeEstimator
2026-06-18T12:19:30,623  INFO ControlerListenerManagerImpl:249 calling notifyAfterMobsim on org.matsim.core.scoring.EventsToActivities$1
2026-06-18T12:19:30,668  INFO ControlerListenerManagerImpl:252 [it.0] all ControlerAfterMobsimListeners called.
2026-06-18T12:19:30,670  INFO AbstractController$4:160 ### ITERATION 0 fires scoring event
2026-06-18T12:19:30,671  INFO ControlerListenerManagerImpl:184 calling notifyScoring on org.matsim.core.scoring.PlansScoringImpl
2026-06-18T12:19:30,685  INFO NewScoreAssignerImpl:58 it: 0 msaStart: null
2026-06-18T12:19:30,696  INFO ControlerListenerManagerImpl:195 [it.0] all ControlerScoringListeners called.
2026-06-18T12:19:30,697  INFO AbstractController$5:168 ### ITERATION 0 fires iteration end event
2026-06-18T12:19:30,698  INFO ControlerListenerManagerImpl:161 calling notifyIterationEnds on org.matsim.core.controler.corelisteners.EventsHandlingImpl
2026-06-18T12:19:30,700  INFO EventsManagerImpl:159 removing Event-Handler: org.matsim.core.events.algorithms.EventWriterXML
2026-06-18T12:19:30,700  INFO EventsManagerImpl:159 removing Event-Handler: org.matsim.core.events.algorithms.EventWriterXML
2026-06-18T12:19:30,702  INFO ControlerListenerManagerImpl:161 calling notifyIterationEnds on org.matsim.core.scoring.PlansScoringImpl
2026-06-18T12:19:30,707  INFO ControlerListenerManagerImpl:168 calling notifyIterationEnds on org.matsim.counts.CountsControlerListener
2026-06-18T12:19:30,708  INFO ControlerListenerManagerImpl:168 calling notifyIterationEnds on org.matsim.analysis.ModeStatsControlerListener
2026-06-18T12:19:30,722  INFO ModeStatsControlerListener:145 Mode shares over all 10014.0 trips found. MainModeIdentifier: class org.matsim.core.router.RoutingModeMainModeIdentifier
2026-06-18T12:19:30,723  INFO ModeStatsControlerListener:152 -- mode share of mode drt = 1.0
2026-06-18T12:19:30,725  INFO ControlerListenerManagerImpl:168 calling notifyIterationEnds on org.matsim.analysis.ScoreStatsControlerListener
2026-06-18T12:19:30,731  INFO ScoreStatsControlerListener:149 -- avg. score of the executed plan of each agent: 89.32620846572027
2026-06-18T12:19:30,733  INFO ScoreStatsControlerListener:150 -- avg. score of the worst plan of each agent: 89.32620846572027
2026-06-18T12:19:30,734  INFO ScoreStatsControlerListener:151 -- avg. of the avg. plan score per agent: 89.32620846572027
2026-06-18T12:19:30,736  INFO ScoreStatsControlerListener:152 -- avg. score of the best plan of each agent: 89.32620846572027
2026-06-18T12:19:30,740  INFO ControlerListenerManagerImpl:168 calling notifyIterationEnds on org.matsim.analysis.IterationTravelStatsControlerListener
2026-06-18T12:19:30,789  INFO TravelDistanceStats:144 -- average leg distance per plan (executed plans only): 3003.5047579907687 meters
2026-06-18T12:19:30,822  INFO TravelDistanceStats:145 average leg distance per Person (executed plans only): 19927.52029240437 meters (statistic on all 30009 legs which have a finite distance)
2026-06-18T12:19:30,823  INFO TravelDistanceStats:146 -- average trip distance per plan (executed plans only): 9002.380793697539 meters
2026-06-18T12:19:30,824  INFO TravelDistanceStats:147 average trip distance per Person (executed plans only): 19927.44561275697 meters (statistic on all 10012 trips which have a finite distance)
2026-06-18T12:19:30,824  INFO TravelDistanceStats:148 (TravelDistanceStats takes an average over all legs where the simulation reports travelled (network) distances
2026-06-18T12:19:30,825  INFO TravelDistanceStats:149 (and teleported legs whose route contains a distance.)
2026-06-18T12:19:33,743  INFO ControlerListenerManagerImpl:168 calling notifyIterationEnds on org.matsim.analysis.LegHistogramListener
2026-06-18T12:19:33,783  INFO LegHistogramListener:73 number of legs:	30010	100%
2026-06-18T12:19:33,786  INFO LegHistogramListener:80 number of drt legs:	9999	33.3188937020993%
2026-06-18T12:19:33,787  INFO LegHistogramListener:80 number of walk legs:	20011	66.6811062979007%
2026-06-18T12:19:34,312  INFO ControlerListenerManagerImpl:168 calling notifyIterationEnds on org.matsim.analysis.LinkStatsControlerListener
2026-06-18T12:19:34,319  INFO ControlerListenerManagerImpl:168 calling notifyIterationEnds on org.matsim.contrib.drt.analysis.DrtAnalysisControlerListener
2026-06-18T12:19:36,632  INFO MemoryObserver:42 used RAM: 606 MB  free: 1049 MB  total: 1656 MB
2026-06-18T12:19:38,461  INFO ControlerListenerManagerImpl:168 calling notifyIterationEnds on org.matsim.contrib.common.timeprofile.ProfileWriter
2026-06-18T12:19:38,950  INFO ControlerListenerManagerImpl:168 calling notifyIterationEnds on org.matsim.contrib.common.timeprofile.ProfileWriter
2026-06-18T12:19:39,416  INFO ControlerListenerManagerImpl:168 calling notifyIterationEnds on org.matsim.contrib.drt.analysis.zonal.DrtZonalWaitTimesAnalyzer
2026-06-18T12:19:39,490  INFO ControlerListenerManagerImpl:168 calling notifyIterationEnds on org.matsim.contrib.drt.analysis.zonal.ZonalIdleVehicleXYVisualiser
2026-06-18T12:19:39,507  INFO ControlerListenerManagerImpl:172 [it.0] all ControlerIterationEndsListeners called.
2026-06-18T12:19:39,656  INFO AbstractController:182 ### ITERATION 0 ENDS
2026-06-18T12:19:39,687  INFO AbstractController:183 ###################################################
2026-06-18T12:19:39,688  INFO MatsimRuntimeModifications:80 S H U T D O W N   ---   start shutdown.
2026-06-18T12:19:39,689  INFO ControlerListenerManagerImpl:122 calling notifyShutdown on org.matsim.core.controler.corelisteners.EventsHandlingImpl
2026-06-18T12:19:39,689  INFO ControlerListenerManagerImpl:122 calling notifyShutdown on org.matsim.core.controler.corelisteners.DumpDataAtEndImpl
2026-06-18T12:19:39,695  INFO Counter:70 [PopulationWriter] dumped person # 1
2026-06-18T12:19:39,697  INFO Counter:70 [PopulationWriter] dumped person # 2
2026-06-18T12:19:39,697  INFO Counter:70 [PopulationWriter] dumped person # 4
2026-06-18T12:19:39,699  INFO Counter:70 [PopulationWriter] dumped person # 8
2026-06-18T12:19:39,701  INFO Counter:70 [PopulationWriter] dumped person # 16
2026-06-18T12:19:39,705  INFO Counter:70 [PopulationWriter] dumped person # 32
2026-06-18T12:19:39,711  INFO Counter:70 [PopulationWriter] dumped person # 64
2026-06-18T12:19:39,723  INFO Counter:70 [PopulationWriter] dumped person # 128
2026-06-18T12:19:39,742  INFO Counter:70 [PopulationWriter] dumped person # 256
2026-06-18T12:19:39,785  INFO Counter:70 [PopulationWriter] dumped person # 512
2026-06-18T12:19:39,904  INFO Counter:70 [PopulationWriter] dumped person # 1024
2026-06-18T12:19:40,093  INFO Counter:70 [PopulationWriter] dumped person # 2048
2026-06-18T12:19:40,358  INFO Counter:70 [PopulationWriter] dumped person # 4096
2026-06-18T12:19:40,436  INFO PopulationWriter:145 Population written to: output/S5/output_plans.xml.gz
2026-06-18T12:19:40,439  INFO Counter:75 [PopulationWriter] dumped person # 4523
2026-06-18T12:19:40,441  INFO NetworkWriter:70 Writing network to file: output/S5/output_network.xml.gz...
2026-06-18T12:19:40,629  INFO NetworkWriter:73 done.
2026-06-18T12:19:40,669  INFO Config:551 setting context to [file:/D:/Study/TUB/So2026/ITS/GroupAssignment/ITS-Homework2/Assignment_2/Task3-Cottbus/]
2026-06-18T12:19:40,673  INFO Config:551 setting context to [file:/D:/Study/TUB/So2026/ITS/GroupAssignment/ITS-Homework2/Assignment_2/Task3-Cottbus/]
2026-06-18T12:19:40,676  INFO Config:551 setting context to [file:/D:/Study/TUB/So2026/ITS/GroupAssignment/ITS-Homework2/Assignment_2/Task3-Cottbus/]
2026-06-18T12:19:40,679  INFO Config:551 setting context to [file:/D:/Study/TUB/So2026/ITS/GroupAssignment/ITS-Homework2/Assignment_2/Task3-Cottbus/]
2026-06-18T12:19:40,681  INFO Config:551 setting context to [file:/D:/Study/TUB/So2026/ITS/GroupAssignment/ITS-Homework2/Assignment_2/Task3-Cottbus/]
2026-06-18T12:19:40,685  INFO Config:551 setting context to [file:/D:/Study/TUB/So2026/ITS/GroupAssignment/ITS-Homework2/Assignment_2/Task3-Cottbus/]
2026-06-18T12:19:40,688  INFO Config:551 setting context to [file:/D:/Study/TUB/So2026/ITS/GroupAssignment/ITS-Homework2/Assignment_2/Task3-Cottbus/]
2026-06-18T12:19:40,691  INFO Config:551 setting context to [file:/D:/Study/TUB/So2026/ITS/GroupAssignment/ITS-Homework2/Assignment_2/Task3-Cottbus/]
2026-06-18T12:19:40,693  INFO Config:551 setting context to [file:/D:/Study/TUB/So2026/ITS/GroupAssignment/ITS-Homework2/Assignment_2/Task3-Cottbus/]
2026-06-18T12:19:40,695  INFO Config:551 setting context to [file:/D:/Study/TUB/So2026/ITS/GroupAssignment/ITS-Homework2/Assignment_2/Task3-Cottbus/]
2026-06-18T12:19:40,697  INFO Config:551 setting context to [file:/D:/Study/TUB/So2026/ITS/GroupAssignment/ITS-Homework2/Assignment_2/Task3-Cottbus/]
2026-06-18T12:19:40,701  INFO Config:551 setting context to [file:/D:/Study/TUB/So2026/ITS/GroupAssignment/ITS-Homework2/Assignment_2/Task3-Cottbus/]
2026-06-18T12:19:40,703  INFO Config:551 setting context to [file:/D:/Study/TUB/So2026/ITS/GroupAssignment/ITS-Homework2/Assignment_2/Task3-Cottbus/]
2026-06-18T12:19:40,708  INFO Config:551 setting context to [file:/D:/Study/TUB/So2026/ITS/GroupAssignment/ITS-Homework2/Assignment_2/Task3-Cottbus/]
2026-06-18T12:19:40,710  INFO Config:551 setting context to [file:/D:/Study/TUB/So2026/ITS/GroupAssignment/ITS-Homework2/Assignment_2/Task3-Cottbus/]
2026-06-18T12:19:40,712  INFO Config:551 setting context to [file:/D:/Study/TUB/So2026/ITS/GroupAssignment/ITS-Homework2/Assignment_2/Task3-Cottbus/]
2026-06-18T12:19:40,716  INFO Config:551 setting context to [file:/D:/Study/TUB/So2026/ITS/GroupAssignment/ITS-Homework2/Assignment_2/Task3-Cottbus/]
2026-06-18T12:19:40,719  INFO Config:551 setting context to [file:/D:/Study/TUB/So2026/ITS/GroupAssignment/ITS-Homework2/Assignment_2/Task3-Cottbus/]
2026-06-18T12:19:40,725  INFO Config:551 setting context to [file:/D:/Study/TUB/So2026/ITS/GroupAssignment/ITS-Homework2/Assignment_2/Task3-Cottbus/]
2026-06-18T12:19:40,727  INFO Config:551 setting context to [file:/D:/Study/TUB/So2026/ITS/GroupAssignment/ITS-Homework2/Assignment_2/Task3-Cottbus/]
2026-06-18T12:19:40,730  INFO Config:551 setting context to [file:/D:/Study/TUB/So2026/ITS/GroupAssignment/ITS-Homework2/Assignment_2/Task3-Cottbus/]
2026-06-18T12:19:40,732  INFO Config:551 setting context to [file:/D:/Study/TUB/So2026/ITS/GroupAssignment/ITS-Homework2/Assignment_2/Task3-Cottbus/]
2026-06-18T12:19:40,736  INFO Config:551 setting context to [file:/D:/Study/TUB/So2026/ITS/GroupAssignment/ITS-Homework2/Assignment_2/Task3-Cottbus/]
2026-06-18T12:19:40,738  INFO Config:551 setting context to [file:/D:/Study/TUB/So2026/ITS/GroupAssignment/ITS-Homework2/Assignment_2/Task3-Cottbus/]
2026-06-18T12:19:40,741  INFO Config:551 setting context to [file:/D:/Study/TUB/So2026/ITS/GroupAssignment/ITS-Homework2/Assignment_2/Task3-Cottbus/]
2026-06-18T12:19:40,743  INFO Config:551 setting context to [file:/D:/Study/TUB/So2026/ITS/GroupAssignment/ITS-Homework2/Assignment_2/Task3-Cottbus/]
2026-06-18T12:19:40,745  INFO Config:551 setting context to [file:/D:/Study/TUB/So2026/ITS/GroupAssignment/ITS-Homework2/Assignment_2/Task3-Cottbus/]
2026-06-18T12:19:40,747  INFO Config:551 setting context to [file:/D:/Study/TUB/So2026/ITS/GroupAssignment/ITS-Homework2/Assignment_2/Task3-Cottbus/]
2026-06-18T12:19:40,752  INFO Config:551 setting context to [file:/D:/Study/TUB/So2026/ITS/GroupAssignment/ITS-Homework2/Assignment_2/Task3-Cottbus/]
2026-06-18T12:19:40,754  INFO Config:551 setting context to [file:/D:/Study/TUB/So2026/ITS/GroupAssignment/ITS-Homework2/Assignment_2/Task3-Cottbus/]
2026-06-18T12:19:40,761  INFO MatsimVehicleWriter:55 about to write vehicles to: output/S5/output_vehicles.xml.gz
2026-06-18T12:19:40,762  INFO VehicleWriterV2:64 about to write vehicles to: output/S5/output_vehicles.xml.gz
2026-06-18T12:19:40,782  INFO MatsimVehicleWriter:55 about to write vehicles to: output/S5/output_allVehicles.xml.gz
2026-06-18T12:19:40,783  INFO VehicleWriterV2:64 about to write vehicles to: output/S5/output_allVehicles.xml.gz
2026-06-18T12:19:40,787  INFO HouseholdsWriterV10:67 about to write  households to: output/S5/output_households.xml.gz
2026-06-18T12:19:40,789  INFO Counter:75 [HouseholdsWriter] wrote household # 0
2026-06-18T12:19:40,816  INFO ControlerListenerManagerImpl:127 calling notifyShutdown on org.matsim.analysis.ScoreStatsControlerListener
2026-06-18T12:19:40,819  INFO ControlerListenerManagerImpl:127 calling notifyShutdown on org.matsim.analysis.IterationTravelStatsControlerListener
2026-06-18T12:19:40,819  INFO IterationTravelStatsControlerListener:115 Writing all Person and Attributes to personscsv
2026-06-18T12:19:40,892  INFO IterationTravelStatsControlerListener:159 ...done
2026-06-18T12:19:40,925  INFO ControlerListenerManagerImpl:127 calling notifyShutdown on org.matsim.analysis.LinkStatsControlerListener
2026-06-18T12:19:41,174  INFO ControlerListenerManagerImpl:127 calling notifyShutdown on org.matsim.contrib.drt.analysis.DrtAnalysisControlerListener
2026-06-18T12:19:41,272  INFO ControlerListenerManagerImpl:127 calling notifyShutdown on org.matsim.contrib.drt.routing.DefaultDrtRouteUpdater
2026-06-18T12:19:41,273  INFO ControlerListenerManagerImpl:127 calling notifyShutdown on org.matsim.contrib.drt.analysis.zonal.DrtZonalWaitTimesAnalyzer
2026-06-18T12:19:42,431  INFO ShapeFileWriter:51 Writing shapefile to output/S5/drt_waitStats_drt_zonal.shp
2026-06-18T12:19:43,143  INFO ControlerListenerManagerImpl:127 calling notifyShutdown on org.matsim.contrib.dvrp.fleet.FleetControlerListener
2026-06-18T12:19:43,180  INFO ControlerListenerManagerImpl:130 all ControlerShutdownListeners called.
2026-06-18T12:19:43,180  INFO MatsimRuntimeModifications:103 S H U T D O W N   ---   shutdown completed.
2026-06-18T12:19:43,181  INFO OutputDirectoryLogging:171 closing the logfile, i.e. messages sent to the logger after this message are not written to the logfile.
2026-06-18T12:19:43,184  INFO OutputDirectoryLogging:171 closing the logfile, i.e. messages sent to the logger after this message are not written to the logfile.
